                                  MODFLOW-LGR      
      U.S. GEOLOGICAL SURVEY MODULAR FINITE-DIFFERENCE GROUND-WATER FLOW MODEL
                              VERSION 1.1 08/8/2007

 LIST FILE: child2.lst
                         UNIT   36

 OPENING CHILD2.ba6
 FILE TYPE:BAS6   UNIT   35   STATUS:OLD    
 FORMAT:FORMATTED              ACCESS:SEQUENTIAL          

 OPENING CHILDh2.lpf
 FILE TYPE:LPF   UNIT   37   STATUS:OLD    
 FORMAT:FORMATTED              ACCESS:SEQUENTIAL          

 OPENING CHILD2.WEL
 FILE TYPE:WEL   UNIT   32   STATUS:OLD    
 FORMAT:FORMATTED              ACCESS:SEQUENTIAL          

 OPENING CHILD2.gmg
 FILE TYPE:GMG   UNIT   33   STATUS:OLD    
 FORMAT:FORMATTED              ACCESS:SEQUENTIAL          
#PCG 33 child2.pcg                                                                                                                                                                                                                                                                                          
#DE4 33 CHILD2.DE4                                                                                                                                                                                                                                                                                          

 OPENING CHILD2.OC
 FILE TYPE:OC   UNIT   34   STATUS:OLD    
 FORMAT:FORMATTED              ACCESS:SEQUENTIAL          

 OPENING cbhead2
 FILE TYPE:DATA   UNIT   90   STATUS:UNKNOWN
 FORMAT:FORMATTED              ACCESS:SEQUENTIAL          

 OPENING cbflux_chk2
 FILE TYPE:DATA   UNIT   91   STATUS:UNKNOWN
 FORMAT:FORMATTED              ACCESS:SEQUENTIAL          

 OPENING headc2
 FILE TYPE:DATA(BINARY)   UNIT   66   STATUS:UNKNOWN
 FORMAT:BINARY                 ACCESS:SEQUENTIAL          

 OPENING flowc2
 FILE TYPE:DATA(BINARY)   UNIT   68   STATUS:UNKNOWN
 FORMAT:BINARY                 ACCESS:SEQUENTIAL          

 OPENING CHILD2.dis
 FILE TYPE:DIS   UNIT   30   STATUS:OLD    
 FORMAT:FORMATTED              ACCESS:SEQUENTIAL          

 OPENING CHILD2.zon
 FILE TYPE:ZONE   UNIT   38   STATUS:OLD    
 FORMAT:FORMATTED              ACCESS:SEQUENTIAL          

 BAS -- BASIC PACKAGE, VERSION 7, 5/2/2005 INPUT READ FROM UNIT   35

 DISCRETIZATION INPUT DATA READ FROM UNIT   30
    1 LAYERS       100 ROWS       154 COLUMNS
    1 STRESS PERIOD(S) IN SIMULATION
 MODEL TIME UNIT IS UNDEFINED
 MODEL LENGTH UNIT IS UNDEFINED
  Confining bed flag for each layer:
   0

                     DELR =   1.02778    

                     DELC =   1.00000    

 TOP ELEVATION OF LAYER 1 =   1.00000    

   MODEL LAYER BOTTOM EL. =   0.00000     FOR LAYER   1


 STRESS PERIOD     LENGTH       TIME STEPS     MULTIPLIER FOR DELT    SS FLAG
 ----------------------------------------------------------------------------
        1         1.000000          1                    1.000         SS

 STEADY-STATE SIMULATION



 
 #Locally Refined Grid: Homogeneous                                              
 #Steffen Mehl 03/22/2007--> MULTIPLE CHILDREN                                   
 THE FREE FORMAT OPTION HAS BEEN SELECTED
 CALCULATE FLOW BETWEEN ADJACENT CONSTANT-HEAD CELLS

 OPENING FILE ON UNIT   99:
 child2.ibd                                                                                                                                                                                              



                     BOUNDARY ARRAY FOR LAYER   1
 READING ON UNIT   99 WITH FORMAT: (154I3)             

 AQUIFER HEAD WILL BE SET TO -999.00     AT ALL NO-FLOW NODES (IBOUND=0).

             INITIAL HEAD =   5.50000     FOR LAYER   1

 OUTPUT CONTROL IS SPECIFIED ONLY AT TIME STEPS FOR WHICH OUTPUT IS DESIRED
 HEAD PRINT FORMAT CODE IS   0    DRAWDOWN PRINT FORMAT CODE IS   0
 HEADS WILL BE SAVED ON UNIT   66    DRAWDOWNS WILL BE SAVED ON UNIT    0

 ZONE OPTION, INPUT READ FROM UNIT   38
 # this is the zone array for the child grid.  Garcia heterogeneity
     2 ZONE ARRAYS



             ZONE ARRAY: czone2    
 READING ON UNIT   38 WITH FORMAT: (100I5)             



             ZONE ARRAY: rchc2     
 READING ON UNIT   38 WITH FORMAT: (154I3)             

 LGR -- LOCAL GRID REFINEMENT, VERSION 1.1, 11/10/2006
        INPUT READ FOR MODEL  3 DEFINED BY NAME FILE CHILD2.nam

 LOCAL GRID REFINEMENT IS ACTIVE FOR CHILD ONLY
               STARTING HEADS FROM PARENT WILL BE USED: ISHFLG =   1
               VALUE IN IBOUND INDICATING BOUNDARY INTERFACE =  -39
               BOUNDARY HEADS WILL BE SAVED ON UNIT  90
               BOUNDARY FLUXES WILL BE SAVED ON UNIT  91
               MAX NUMBER OF LGR ITERATIONS = 15
               LGR ITERATION RESULTS WRITTEN TO SCREEN: IOUTLGR =  -1

               WEIGHTING FACTORS FOR RELAXATION
               RELAXH(HEAD) RELAXF(FLUX)
               -------------------------
               0.500E+00      0.500E+00

               CLOSURE CRITERIA FOR LGR ITERATIONS
               HCLOSELGR       FCLOSELGR
               -------------------------
               1.000E-05      1.000E-05

               STARTING LAYER, ROW, COLUMN=   1,  20,  70
               ENDING LAYER, ROW, COLUMN=     1,  31,  87
               NCPP: NUMBER OF CHILD CELLS PER WIDTH OF PARENT CELL= 9
               NCPPL: NUMBER OF CHILD LAYERS IN LAYER  1 OF PARENT = 1

 LPF -- LAYER-PROPERTY FLOW PACKAGE, VERSION 7, 5/2/2005
         INPUT READ FROM UNIT   37
 # LPF file for child grid.  Homogeneous
 CELL-BY-CELL FLOWS WILL BE SAVED ON UNIT   68
 HEAD AT CELLS THAT CONVERT TO DRY=   0.0000    
     5 Named Parameters     

   LAYER FLAGS:
 LAYER       LAYTYP        LAYAVG         CHANI        LAYVKA        LAYWET
 ---------------------------------------------------------------------------
    1             0             0     1.000E+00             0             0

   INTERPRETATION OF LAYER FLAGS:
                        INTERBLOCK     HORIZONTAL    DATA IN
         LAYER TYPE   TRANSMISSIVITY   ANISOTROPY   ARRAY VKA   WETTABILITY
 LAYER      (LAYTYP)      (LAYAVG)       (CHANI)      (LAYVKA)      (LAYWET)
 ---------------------------------------------------------------------------
    1      CONFINED      HARMONIC     1.000E+00    VERTICAL K  NON-WETTABLE

 WETTING CAPABILITY IS NOT ACTIVE IN ANY LAYER

 PARAMETERS DEFINED IN THE LPF PACKAGE

 PARAMETER NAME:T110         TYPE:HK     CLUSTERS:   1
 Parameter value from package file is:   5.00000E-04
                LAYER:   1    MULTIPLIER ARRAY: NONE    ZONE ARRAY: czone2
                ZONE VALUES:  110

 PARAMETER NAME:T70          TYPE:HK     CLUSTERS:   1
 Parameter value from package file is:   5.00000E-04
                LAYER:   1    MULTIPLIER ARRAY: NONE    ZONE ARRAY: czone2
                ZONE VALUES:   70

 PARAMETER NAME:T30          TYPE:HK     CLUSTERS:   1
 Parameter value from package file is:   5.00000E-04
                LAYER:   1    MULTIPLIER ARRAY: NONE    ZONE ARRAY: czone2
                ZONE VALUES:   30

 PARAMETER NAME:T16          TYPE:HK     CLUSTERS:   1
 Parameter value from package file is:   5.00000E-04
                LAYER:   1    MULTIPLIER ARRAY: NONE    ZONE ARRAY: czone2
                ZONE VALUES:   16

 PARAMETER NAME:T08          TYPE:HK     CLUSTERS:   1
 Parameter value from package file is:   5.00000E-04
                LAYER:   1    MULTIPLIER ARRAY: NONE    ZONE ARRAY: czone2
                ZONE VALUES:    8

    HYD. COND. ALONG ROWS FOR LAYER   1 WILL BE DEFINED BY PARAMETERS
 (PRINT FLAG= -20)

    HYD. COND. ALONG ROWS is defined by the following parameters:
 T70       
 T30       
 T16       

    HYD. COND. ALONG ROWS =  5.000000E-04 FOR LAYER   1

      VERTICAL HYD. COND. =   1.00000     FOR LAYER   1

 WEL -- WELL PACKAGE, VERSION 7, 5/2/2005 INPUT READ FROM UNIT   32
 No named parameters
 MAXIMUM OF      1 ACTIVE WELLS AT ONE TIME


     0 Well parameters
 #==============================
 # RCLOSE  IITER HCLOSE  MXITER
 #==============================
 #==============================
 # DAMP  IADAMP  IOUTGMG
 #==============================
 #==============================
 # ISM  ISC
 #==============================
 -------------------------------------------------
 GMG -- PCG GEOMETRIC MULTI-GRID SOLUTION PACKAGE:
 -------------------------------------------------
 RCLOSE  = 1.00E-08; INNER CONVERGENCE CRITERION
 IITER   =      100; MAX INNER ITERATIONS            
 HCLOSE  = 1.00E-08; OUTER CONVERGENCE CRITERION
 MXIITER =      100; MAX OUTER ITERATIONS            
 DAMP    = 1.00E+00; DAMPING PARAMETER          
 IADAMP  =        0; ADAPTIVE DAMPING FLAG           
 IOUTGMG =        2; OUTPUT CONTROL FLAG             
 ISM     =        0; SMOOTHER FLAG                   
 ISC     =        0; COARSENING FLAG                 
 RELAX   = 0.00E+00; RELAXATION PARAMETER       
 -------------------------------------------------
 ILU SMOOTHING IMPLEMENTED
 FULL COARSENING
 -------------------------------------------------
    1 MEGABYTES OF MEMORY ALLOCATED BY GMG
 -------------------------------------------------

1
                            STRESS PERIOD NO.    1, LENGTH =   1.000000    
                            -----------------------------------------------

                              NUMBER OF TIME STEPS =     1

                               MULTIPLIER FOR DELT =     1.000

                            INITIAL TIME STEP SIZE =   1.000000    

 WELL NO.  LAYER   ROW   COL   STRESS RATE         
 --------------------------------------------------
      1      1     55     82     -0.5500E-02

      1 WELL 
 
 SOLVING FOR HEAD 
 ITER:   0  RES: 3.7683E-04  CFAC: 1.000
 ITER:   1  RES: 3.3800E-20  CFAC: 0.000
 ---------------------------------------------------------
 PCG ITERATIONS                    :    1
 DAMPING                           : 1.000
 L2-NORM OF RESIDUAL               : 3.3800E-20
 MAX HEAD CHANGE                   : 1.3549E-01
 MAX HEAD CHANGE AT (COL,ROW,LAY)  : (   132,   100,     1)
 ---------------------------------------------------------

 ITER:   0  RES: 3.6543E-18  CFAC: 1.000
 ITER:   1  RES: 1.4238E-33  CFAC: 0.000
 ---------------------------------------------------------
 PCG ITERATIONS                    :    1
 DAMPING                           : 1.000
 L2-NORM OF RESIDUAL               : 1.4238E-33
 MAX HEAD CHANGE                   : 6.7514E-15
 MAX HEAD CHANGE AT (COL,ROW,LAY)  : (   154,     5,     1)
 ---------------------------------------------------------

 -------------------------------
 TIME STEP            :      1
 STRESS PERIOD        :      1
 GMG CALLS            :      2
 PCG ITERATIONS       :      2
 -------------------------------
 TOTAL PCG ITERATIONS :      2
 -------------------------------

 ITER:   0  RES: 1.9049E-02  CFAC: 1.000
 ITER:   1  RES: 8.2014E-06  CFAC: 0.000
 ITER:   2  RES: 3.1302E-07  CFAC: 0.038
 ITER:   3  RES: 1.1913E-08  CFAC: 0.038
 ITER:   4  RES: 2.1543E-10  CFAC: 0.018
 ---------------------------------------------------------
 PCG ITERATIONS                    :    4
 DAMPING                           : 1.000
 L2-NORM OF RESIDUAL               : 2.1543E-10
 MAX HEAD CHANGE                   : 3.8448E+00
 MAX HEAD CHANGE AT (COL,ROW,LAY)  : (    82,    55,     1)
 ---------------------------------------------------------

 ITER:   0  RES: 2.1543E-10  CFAC: 1.000
 ITER:   1  RES: 9.1572E-12  CFAC: 0.043
 ---------------------------------------------------------
 PCG ITERATIONS                    :    1
 DAMPING                           : 1.000
 L2-NORM OF RESIDUAL               : 9.1572E-12
 MAX HEAD CHANGE                   : 7.7829E-08
 MAX HEAD CHANGE AT (COL,ROW,LAY)  : (   127,    96,     1)
 ---------------------------------------------------------

 ITER:   0  RES: 9.1572E-12  CFAC: 1.000
 ITER:   1  RES: 3.3410E-13  CFAC: 0.036
 ---------------------------------------------------------
 PCG ITERATIONS                    :    1
 DAMPING                           : 1.000
 L2-NORM OF RESIDUAL               : 3.3410E-13
 MAX HEAD CHANGE                   : 1.6002E-09
 MAX HEAD CHANGE AT (COL,ROW,LAY)  : (    82,    55,     1)
 ---------------------------------------------------------

 -------------------------------
 TIME STEP            :      1
 STRESS PERIOD        :      1
 GMG CALLS            :      3
 PCG ITERATIONS       :      6
 -------------------------------
 TOTAL PCG ITERATIONS :      8
 -------------------------------

 ITER:   0  RES: 6.6732E-06  CFAC: 1.000
 ITER:   1  RES: 2.1379E-21  CFAC: 0.000
 ---------------------------------------------------------
 PCG ITERATIONS                    :    1
 DAMPING                           : 1.000
 L2-NORM OF RESIDUAL               : 2.1379E-21
 MAX HEAD CHANGE                   : 7.6299E-03
 MAX HEAD CHANGE AT (COL,ROW,LAY)  : (    81,   100,     1)
 ---------------------------------------------------------

 ITER:   0  RES: 4.2877E-18  CFAC: 1.000
 ITER:   1  RES: 1.2948E-33  CFAC: 0.000
 ---------------------------------------------------------
 PCG ITERATIONS                    :    1
 DAMPING                           : 1.000
 L2-NORM OF RESIDUAL               : 1.2948E-33
 MAX HEAD CHANGE                   : 3.5632E-15
 MAX HEAD CHANGE AT (COL,ROW,LAY)  : (   154,    32,     1)
 ---------------------------------------------------------

 -------------------------------
 TIME STEP            :      1
 STRESS PERIOD        :      1
 GMG CALLS            :      2
 PCG ITERATIONS       :      2
 -------------------------------
 TOTAL PCG ITERATIONS :     10
 -------------------------------

 ITER:   0  RES: 2.8504E-05  CFAC: 1.000
 ITER:   1  RES: 5.0808E-07  CFAC: 0.018
 ITER:   2  RES: 5.4392E-09  CFAC: 0.011
 ---------------------------------------------------------
 PCG ITERATIONS                    :    2
 DAMPING                           : 1.000
 L2-NORM OF RESIDUAL               : 5.4392E-09
 MAX HEAD CHANGE                   : 7.1139E-03
 MAX HEAD CHANGE AT (COL,ROW,LAY)  : (    82,    99,     1)
 ---------------------------------------------------------

 ITER:   0  RES: 5.4392E-09  CFAC: 1.000
 ITER:   1  RES: 2.6138E-10  CFAC: 0.048
 ---------------------------------------------------------
 PCG ITERATIONS                    :    1
 DAMPING                           : 1.000
 L2-NORM OF RESIDUAL               : 2.6138E-10
 MAX HEAD CHANGE                   : 4.3401E-06
 MAX HEAD CHANGE AT (COL,ROW,LAY)  : (   114,    95,     1)
 ---------------------------------------------------------

 ITER:   0  RES: 2.6138E-10  CFAC: 1.000
 ITER:   1  RES: 1.0870E-11  CFAC: 0.042
 ---------------------------------------------------------
 PCG ITERATIONS                    :    1
 DAMPING                           : 1.000
 L2-NORM OF RESIDUAL               : 1.0870E-11
 MAX HEAD CHANGE                   : 1.5692E-07
 MAX HEAD CHANGE AT (COL,ROW,LAY)  : (    82,    95,     1)
 ---------------------------------------------------------

 ITER:   0  RES: 1.0870E-11  CFAC: 1.000
 ITER:   1  RES: 5.4968E-13  CFAC: 0.051
 ---------------------------------------------------------
 PCG ITERATIONS                    :    1
 DAMPING                           : 1.000
 L2-NORM OF RESIDUAL               : 5.4968E-13
 MAX HEAD CHANGE                   : 3.2383E-09
 MAX HEAD CHANGE AT (COL,ROW,LAY)  : (    56,    94,     1)
 ---------------------------------------------------------

 -------------------------------
 TIME STEP            :      1
 STRESS PERIOD        :      1
 GMG CALLS            :      4
 PCG ITERATIONS       :      5
 -------------------------------
 TOTAL PCG ITERATIONS :     15
 -------------------------------

 ITER:   0  RES: 1.9173E-06  CFAC: 1.000
 ITER:   1  RES: 6.4923E-22  CFAC: 0.000
 ---------------------------------------------------------
 PCG ITERATIONS                    :    1
 DAMPING                           : 1.000
 L2-NORM OF RESIDUAL               : 6.4923E-22
 MAX HEAD CHANGE                   : 2.6740E-03
 MAX HEAD CHANGE AT (COL,ROW,LAY)  : (    83,   100,     1)
 ---------------------------------------------------------

 ITER:   0  RES: 4.0218E-18  CFAC: 1.000
 ITER:   1  RES: 6.6643E-34  CFAC: 0.000
 ---------------------------------------------------------
 PCG ITERATIONS                    :    1
 DAMPING                           : 1.000
 L2-NORM OF RESIDUAL               : 6.6643E-34
 MAX HEAD CHANGE                   : 2.9715E-15
 MAX HEAD CHANGE AT (COL,ROW,LAY)  : (   134,     1,     1)
 ---------------------------------------------------------

 -------------------------------
 TIME STEP            :      1
 STRESS PERIOD        :      1
 GMG CALLS            :      2
 PCG ITERATIONS       :      2
 -------------------------------
 TOTAL PCG ITERATIONS :     17
 -------------------------------

 ITER:   0  RES: 8.2944E-06  CFAC: 1.000
 ITER:   1  RES: 1.8204E-07  CFAC: 0.022
 ITER:   2  RES: 2.3748E-09  CFAC: 0.013
 ---------------------------------------------------------
 PCG ITERATIONS                    :    2
 DAMPING                           : 1.000
 L2-NORM OF RESIDUAL               : 2.3748E-09
 MAX HEAD CHANGE                   : 2.5183E-03
 MAX HEAD CHANGE AT (COL,ROW,LAY)  : (    82,    99,     1)
 ---------------------------------------------------------

 ITER:   0  RES: 2.3748E-09  CFAC: 1.000
 ITER:   1  RES: 1.0765E-10  CFAC: 0.045
 ---------------------------------------------------------
 PCG ITERATIONS                    :    1
 DAMPING                           : 1.000
 L2-NORM OF RESIDUAL               : 1.0765E-10
 MAX HEAD CHANGE                   : 1.6711E-06
 MAX HEAD CHANGE AT (COL,ROW,LAY)  : (    46,    95,     1)
 ---------------------------------------------------------

 ITER:   0  RES: 1.0765E-10  CFAC: 1.000
 ITER:   1  RES: 5.2395E-12  CFAC: 0.049
 ---------------------------------------------------------
 PCG ITERATIONS                    :    1
 DAMPING                           : 1.000
 L2-NORM OF RESIDUAL               : 5.2395E-12
 MAX HEAD CHANGE                   : 6.7797E-08
 MAX HEAD CHANGE AT (COL,ROW,LAY)  : (    82,    95,     1)
 ---------------------------------------------------------

 ITER:   0  RES: 5.2395E-12  CFAC: 1.000
 ITER:   1  RES: 2.3383E-13  CFAC: 0.045
 ---------------------------------------------------------
 PCG ITERATIONS                    :    1
 DAMPING                           : 1.000
 L2-NORM OF RESIDUAL               : 2.3383E-13
 MAX HEAD CHANGE                   : 1.4272E-09
 MAX HEAD CHANGE AT (COL,ROW,LAY)  : (    54,    95,     1)
 ---------------------------------------------------------

 -------------------------------
 TIME STEP            :      1
 STRESS PERIOD        :      1
 GMG CALLS            :      4
 PCG ITERATIONS       :      5
 -------------------------------
 TOTAL PCG ITERATIONS :     22
 -------------------------------

 ITER:   0  RES: 8.1758E-07  CFAC: 1.000
 ITER:   1  RES: 3.1542E-22  CFAC: 0.000
 ---------------------------------------------------------
 PCG ITERATIONS                    :    1
 DAMPING                           : 1.000
 L2-NORM OF RESIDUAL               : 3.1542E-22
 MAX HEAD CHANGE                   : 5.7939E-04
 MAX HEAD CHANGE AT (COL,ROW,LAY)  : (   119,   100,     1)
 ---------------------------------------------------------

 ITER:   0  RES: 4.0451E-18  CFAC: 1.000
 ITER:   1  RES: 5.4984E-34  CFAC: 0.000
 ---------------------------------------------------------
 PCG ITERATIONS                    :    1
 DAMPING                           : 1.000
 L2-NORM OF RESIDUAL               : 5.4984E-34
 MAX HEAD CHANGE                   : 2.4380E-15
 MAX HEAD CHANGE AT (COL,ROW,LAY)  : (   154,     6,     1)
 ---------------------------------------------------------

 -------------------------------
 TIME STEP            :      1
 STRESS PERIOD        :      1
 GMG CALLS            :      2
 PCG ITERATIONS       :      2
 -------------------------------
 TOTAL PCG ITERATIONS :     24
 -------------------------------

 ITER:   0  RES: 3.5258E-06  CFAC: 1.000
 ITER:   1  RES: 7.7266E-08  CFAC: 0.022
 ITER:   2  RES: 1.0869E-09  CFAC: 0.014
 ---------------------------------------------------------
 PCG ITERATIONS                    :    2
 DAMPING                           : 1.000
 L2-NORM OF RESIDUAL               : 1.0869E-09
 MAX HEAD CHANGE                   : 5.5737E-04
 MAX HEAD CHANGE AT (COL,ROW,LAY)  : (    40,    99,     1)
 ---------------------------------------------------------

 ITER:   0  RES: 1.0869E-09  CFAC: 1.000
 ITER:   1  RES: 4.7937E-11  CFAC: 0.044
 ---------------------------------------------------------
 PCG ITERATIONS                    :    1
 DAMPING                           : 1.000
 L2-NORM OF RESIDUAL               : 4.7937E-11
 MAX HEAD CHANGE                   : 6.7612E-07
 MAX HEAD CHANGE AT (COL,ROW,LAY)  : (   149,    69,     1)
 ---------------------------------------------------------

 ITER:   0  RES: 4.7937E-11  CFAC: 1.000
 ITER:   1  RES: 2.4674E-12  CFAC: 0.051
 ---------------------------------------------------------
 PCG ITERATIONS                    :    1
 DAMPING                           : 1.000
 L2-NORM OF RESIDUAL               : 2.4674E-12
 MAX HEAD CHANGE                   : 1.9654E-08
 MAX HEAD CHANGE AT (COL,ROW,LAY)  : (   127,    95,     1)
 ---------------------------------------------------------

 ITER:   0  RES: 2.4674E-12  CFAC: 1.000
 ITER:   1  RES: 1.0229E-13  CFAC: 0.041
 ---------------------------------------------------------
 PCG ITERATIONS                    :    1
 DAMPING                           : 1.000
 L2-NORM OF RESIDUAL               : 1.0229E-13
 MAX HEAD CHANGE                   : 5.8389E-10
 MAX HEAD CHANGE AT (COL,ROW,LAY)  : (     6,    81,     1)
 ---------------------------------------------------------

 -------------------------------
 TIME STEP            :      1
 STRESS PERIOD        :      1
 GMG CALLS            :      4
 PCG ITERATIONS       :      5
 -------------------------------
 TOTAL PCG ITERATIONS :     29
 -------------------------------

 ITER:   0  RES: 6.3427E-07  CFAC: 1.000
 ITER:   1  RES: 2.5782E-22  CFAC: 0.000
 ---------------------------------------------------------
 PCG ITERATIONS                    :    1
 DAMPING                           : 1.000
 L2-NORM OF RESIDUAL               : 2.5782E-22
 MAX HEAD CHANGE                   : 6.1352E-04
 MAX HEAD CHANGE AT (COL,ROW,LAY)  : (    81,   100,     1)
 ---------------------------------------------------------

 ITER:   0  RES: 3.6543E-18  CFAC: 1.000
 ITER:   1  RES: 5.2543E-34  CFAC: 0.000
 ---------------------------------------------------------
 PCG ITERATIONS                    :    1
 DAMPING                           : 1.000
 L2-NORM OF RESIDUAL               : 5.2543E-34
 MAX HEAD CHANGE                   : 2.6255E-15
 MAX HEAD CHANGE AT (COL,ROW,LAY)  : (   154,    89,     1)
 ---------------------------------------------------------

 -------------------------------
 TIME STEP            :      1
 STRESS PERIOD        :      1
 GMG CALLS            :      2
 PCG ITERATIONS       :      2
 -------------------------------
 TOTAL PCG ITERATIONS :     31
 -------------------------------

 ITER:   0  RES: 2.7177E-06  CFAC: 1.000
 ITER:   1  RES: 4.4788E-08  CFAC: 0.016
 ITER:   2  RES: 2.1369E-10  CFAC: 0.005
 ---------------------------------------------------------
 PCG ITERATIONS                    :    2
 DAMPING                           : 1.000
 L2-NORM OF RESIDUAL               : 2.1369E-10
 MAX HEAD CHANGE                   : 5.6823E-04
 MAX HEAD CHANGE AT (COL,ROW,LAY)  : (    82,    99,     1)
 ---------------------------------------------------------

 ITER:   0  RES: 2.1369E-10  CFAC: 1.000
 ITER:   1  RES: 6.8979E-12  CFAC: 0.032
 ---------------------------------------------------------
 PCG ITERATIONS                    :    1
 DAMPING                           : 1.000
 L2-NORM OF RESIDUAL               : 6.8979E-12
 MAX HEAD CHANGE                   : 1.9129E-07
 MAX HEAD CHANGE AT (COL,ROW,LAY)  : (     7,    88,     1)
 ---------------------------------------------------------

 ITER:   0  RES: 6.8979E-12  CFAC: 1.000
 ITER:   1  RES: 3.3802E-13  CFAC: 0.049
 ---------------------------------------------------------
 PCG ITERATIONS                    :    1
 DAMPING                           : 1.000
 L2-NORM OF RESIDUAL               : 3.3802E-13
 MAX HEAD CHANGE                   : 4.5869E-09
 MAX HEAD CHANGE AT (COL,ROW,LAY)  : (    54,    95,     1)
 ---------------------------------------------------------

 -------------------------------
 TIME STEP            :      1
 STRESS PERIOD        :      1
 GMG CALLS            :      3
 PCG ITERATIONS       :      4
 -------------------------------
 TOTAL PCG ITERATIONS :     35
 -------------------------------

 ITER:   0  RES: 4.0328E-07  CFAC: 1.000
 ITER:   1  RES: 1.5188E-22  CFAC: 0.000
 ---------------------------------------------------------
 PCG ITERATIONS                    :    1
 DAMPING                           : 1.000
 L2-NORM OF RESIDUAL               : 1.5188E-22
 MAX HEAD CHANGE                   : 5.8053E-04
 MAX HEAD CHANGE AT (COL,ROW,LAY)  : (    83,   100,     1)
 ---------------------------------------------------------

 ITER:   0  RES: 3.8971E-18  CFAC: 1.000
 ITER:   1  RES: 1.2762E-33  CFAC: 0.000
 ---------------------------------------------------------
 PCG ITERATIONS                    :    1
 DAMPING                           : 1.000
 L2-NORM OF RESIDUAL               : 1.2762E-33
 MAX HEAD CHANGE                   : 5.0635E-15
 MAX HEAD CHANGE AT (COL,ROW,LAY)  : (   154,    12,     1)
 ---------------------------------------------------------

 -------------------------------
 TIME STEP            :      1
 STRESS PERIOD        :      1
 GMG CALLS            :      2
 PCG ITERATIONS       :      2
 -------------------------------
 TOTAL PCG ITERATIONS :     37
 -------------------------------

 ITER:   0  RES: 1.7456E-06  CFAC: 1.000
 ITER:   1  RES: 3.5202E-08  CFAC: 0.020
 ITER:   2  RES: 4.0859E-10  CFAC: 0.012
 ---------------------------------------------------------
 PCG ITERATIONS                    :    2
 DAMPING                           : 1.000
 L2-NORM OF RESIDUAL               : 4.0859E-10
 MAX HEAD CHANGE                   : 5.4577E-04
 MAX HEAD CHANGE AT (COL,ROW,LAY)  : (    82,    99,     1)
 ---------------------------------------------------------

 ITER:   0  RES: 4.0859E-10  CFAC: 1.000
 ITER:   1  RES: 1.8268E-11  CFAC: 0.045
 ---------------------------------------------------------
 PCG ITERATIONS                    :    1
 DAMPING                           : 1.000
 L2-NORM OF RESIDUAL               : 1.8268E-11
 MAX HEAD CHANGE                   : 3.4248E-07
 MAX HEAD CHANGE AT (COL,ROW,LAY)  : (   116,    95,     1)
 ---------------------------------------------------------

 ITER:   0  RES: 1.8268E-11  CFAC: 1.000
 ITER:   1  RES: 8.6467E-13  CFAC: 0.047
 ---------------------------------------------------------
 PCG ITERATIONS                    :    1
 DAMPING                           : 1.000
 L2-NORM OF RESIDUAL               : 8.6467E-13
 MAX HEAD CHANGE                   : 1.2817E-08
 MAX HEAD CHANGE AT (COL,ROW,LAY)  : (    82,    95,     1)
 ---------------------------------------------------------

 ITER:   0  RES: 8.6467E-13  CFAC: 1.000
 ITER:   1  RES: 3.9854E-14  CFAC: 0.046
 ---------------------------------------------------------
 PCG ITERATIONS                    :    1
 DAMPING                           : 1.000
 L2-NORM OF RESIDUAL               : 3.9854E-14
 MAX HEAD CHANGE                   : 2.5994E-10
 MAX HEAD CHANGE AT (COL,ROW,LAY)  : (    54,    95,     1)
 ---------------------------------------------------------

 -------------------------------
 TIME STEP            :      1
 STRESS PERIOD        :      1
 GMG CALLS            :      4
 PCG ITERATIONS       :      5
 -------------------------------
 TOTAL PCG ITERATIONS :     42
 -------------------------------

 ITER:   0  RES: 2.1712E-07  CFAC: 1.000
 ITER:   1  RES: 8.7473E-23  CFAC: 0.000
 ---------------------------------------------------------
 PCG ITERATIONS                    :    1
 DAMPING                           : 1.000
 L2-NORM OF RESIDUAL               : 8.7473E-23
 MAX HEAD CHANGE                   : 2.9767E-04
 MAX HEAD CHANGE AT (COL,ROW,LAY)  : (    83,   100,     1)
 ---------------------------------------------------------

 ITER:   0  RES: 3.9629E-18  CFAC: 1.000
 ITER:   1  RES: 1.5178E-33  CFAC: 0.000
 ---------------------------------------------------------
 PCG ITERATIONS                    :    1
 DAMPING                           : 1.000
 L2-NORM OF RESIDUAL               : 1.5178E-33
 MAX HEAD CHANGE                   : 4.1601E-15
 MAX HEAD CHANGE AT (COL,ROW,LAY)  : (   141,   100,     1)
 ---------------------------------------------------------

 -------------------------------
 TIME STEP            :      1
 STRESS PERIOD        :      1
 GMG CALLS            :      2
 PCG ITERATIONS       :      2
 -------------------------------
 TOTAL PCG ITERATIONS :     44
 -------------------------------

 ITER:   0  RES: 9.4369E-07  CFAC: 1.000
 ITER:   1  RES: 2.2491E-08  CFAC: 0.024
 ITER:   2  RES: 2.3067E-10  CFAC: 0.010
 ---------------------------------------------------------
 PCG ITERATIONS                    :    2
 DAMPING                           : 1.000
 L2-NORM OF RESIDUAL               : 2.3067E-10
 MAX HEAD CHANGE                   : 2.8184E-04
 MAX HEAD CHANGE AT (COL,ROW,LAY)  : (    82,    99,     1)
 ---------------------------------------------------------

 ITER:   0  RES: 2.3067E-10  CFAC: 1.000
 ITER:   1  RES: 1.0294E-11  CFAC: 0.045
 ---------------------------------------------------------
 PCG ITERATIONS                    :    1
 DAMPING                           : 1.000
 L2-NORM OF RESIDUAL               : 1.0294E-11
 MAX HEAD CHANGE                   : 1.4910E-07
 MAX HEAD CHANGE AT (COL,ROW,LAY)  : (    48,    95,     1)
 ---------------------------------------------------------

 ITER:   0  RES: 1.0294E-11  CFAC: 1.000
 ITER:   1  RES: 4.6558E-13  CFAC: 0.045
 ---------------------------------------------------------
 PCG ITERATIONS                    :    1
 DAMPING                           : 1.000
 L2-NORM OF RESIDUAL               : 4.6558E-13
 MAX HEAD CHANGE                   : 6.9328E-09
 MAX HEAD CHANGE AT (COL,ROW,LAY)  : (    82,    95,     1)
 ---------------------------------------------------------

 -------------------------------
 TIME STEP            :      1
 STRESS PERIOD        :      1
 GMG CALLS            :      3
 PCG ITERATIONS       :      4
 -------------------------------
 TOTAL PCG ITERATIONS :     48
 -------------------------------

 ITER:   0  RES: 7.3099E-08  CFAC: 1.000
 ITER:   1  RES: 2.2308E-23  CFAC: 0.000
 ---------------------------------------------------------
 PCG ITERATIONS                    :    1
 DAMPING                           : 1.000
 L2-NORM OF RESIDUAL               : 2.2308E-23
 MAX HEAD CHANGE                   : 7.4910E-05
 MAX HEAD CHANGE AT (COL,ROW,LAY)  : (    81,   100,     1)
 ---------------------------------------------------------

 ITER:   0  RES: 4.1766E-18  CFAC: 1.000
 ITER:   1  RES: 1.1531E-33  CFAC: 0.000
 ---------------------------------------------------------
 PCG ITERATIONS                    :    1
 DAMPING                           : 1.000
 L2-NORM OF RESIDUAL               : 1.1531E-33
 MAX HEAD CHANGE                   : 3.3757E-15
 MAX HEAD CHANGE AT (COL,ROW,LAY)  : (   154,    40,     1)
 ---------------------------------------------------------

 -------------------------------
 TIME STEP            :      1
 STRESS PERIOD        :      1
 GMG CALLS            :      2
 PCG ITERATIONS       :      2
 -------------------------------
 TOTAL PCG ITERATIONS :     50
 -------------------------------

 ITER:   0  RES: 3.1888E-07  CFAC: 1.000
 ITER:   1  RES: 8.1219E-09  CFAC: 0.025
 ---------------------------------------------------------
 PCG ITERATIONS                    :    1
 DAMPING                           : 1.000
 L2-NORM OF RESIDUAL               : 8.1219E-09
 MAX HEAD CHANGE                   : 7.1418E-05
 MAX HEAD CHANGE AT (COL,ROW,LAY)  : (    82,    99,     1)
 ---------------------------------------------------------

 ITER:   0  RES: 8.1219E-09  CFAC: 1.000
 ITER:   1  RES: 4.2135E-10  CFAC: 0.052
 ---------------------------------------------------------
 PCG ITERATIONS                    :    1
 DAMPING                           : 1.000
 L2-NORM OF RESIDUAL               : 4.2135E-10
 MAX HEAD CHANGE                   : 3.5392E-06
 MAX HEAD CHANGE AT (COL,ROW,LAY)  : (    82,    94,     1)
 ---------------------------------------------------------

 ITER:   0  RES: 4.2135E-10  CFAC: 1.000
 ITER:   1  RES: 1.4182E-11  CFAC: 0.034
 ---------------------------------------------------------
 PCG ITERATIONS                    :    1
 DAMPING                           : 1.000
 L2-NORM OF RESIDUAL               : 1.4182E-11
 MAX HEAD CHANGE                   : 8.5094E-08
 MAX HEAD CHANGE AT (COL,ROW,LAY)  : (    82,    99,     1)
 ---------------------------------------------------------

 ITER:   0  RES: 1.4182E-11  CFAC: 1.000
 ITER:   1  RES: 7.7885E-13  CFAC: 0.055
 ---------------------------------------------------------
 PCG ITERATIONS                    :    1
 DAMPING                           : 1.000
 L2-NORM OF RESIDUAL               : 7.7885E-13
 MAX HEAD CHANGE                   : 4.7893E-09
 MAX HEAD CHANGE AT (COL,ROW,LAY)  : (    82,    93,     1)
 ---------------------------------------------------------

 -------------------------------
 TIME STEP            :      1
 STRESS PERIOD        :      1
 GMG CALLS            :      4
 PCG ITERATIONS       :      4
 -------------------------------
 TOTAL PCG ITERATIONS :     54
 -------------------------------

 ITER:   0  RES: 2.1114E-08  CFAC: 1.000
 ITER:   1  RES: 7.2366E-24  CFAC: 0.000
 ---------------------------------------------------------
 PCG ITERATIONS                    :    1
 DAMPING                           : 1.000
 L2-NORM OF RESIDUAL               : 7.2366E-24
 MAX HEAD CHANGE                   : 2.0035E-05
 MAX HEAD CHANGE AT (COL,ROW,LAY)  : (    83,   100,     1)
 ---------------------------------------------------------

 ITER:   0  RES: 4.1427E-18  CFAC: 1.000
 ITER:   1  RES: 7.9245E-34  CFAC: 0.000
 ---------------------------------------------------------
 PCG ITERATIONS                    :    1
 DAMPING                           : 1.000
 L2-NORM OF RESIDUAL               : 7.9245E-34
 MAX HEAD CHANGE                   : 4.7544E-15
 MAX HEAD CHANGE AT (COL,ROW,LAY)  : (   142,     1,     1)
 ---------------------------------------------------------

 -------------------------------
 TIME STEP            :      1
 STRESS PERIOD        :      1
 GMG CALLS            :      2
 PCG ITERATIONS       :      2
 -------------------------------
 TOTAL PCG ITERATIONS :     56
 -------------------------------

 ITER:   0  RES: 9.2129E-08  CFAC: 1.000
 ITER:   1  RES: 1.6634E-09  CFAC: 0.018
 ---------------------------------------------------------
 PCG ITERATIONS                    :    1
 DAMPING                           : 1.000
 L2-NORM OF RESIDUAL               : 1.6634E-09
 MAX HEAD CHANGE                   : 1.8842E-05
 MAX HEAD CHANGE AT (COL,ROW,LAY)  : (    82,    99,     1)
 ---------------------------------------------------------

 ITER:   0  RES: 1.6634E-09  CFAC: 1.000
 ITER:   1  RES: 7.9579E-11  CFAC: 0.048
 ---------------------------------------------------------
 PCG ITERATIONS                    :    1
 DAMPING                           : 1.000
 L2-NORM OF RESIDUAL               : 7.9579E-11
 MAX HEAD CHANGE                   : 7.1248E-07
 MAX HEAD CHANGE AT (COL,ROW,LAY)  : (    38,     7,     1)
 ---------------------------------------------------------

 ITER:   0  RES: 7.9579E-11  CFAC: 1.000
 ITER:   1  RES: 3.0221E-12  CFAC: 0.038
 ---------------------------------------------------------
 PCG ITERATIONS                    :    1
 DAMPING                           : 1.000
 L2-NORM OF RESIDUAL               : 3.0221E-12
 MAX HEAD CHANGE                   : 1.5879E-08
 MAX HEAD CHANGE AT (COL,ROW,LAY)  : (     7,    12,     1)
 ---------------------------------------------------------

 ITER:   0  RES: 3.0221E-12  CFAC: 1.000
 ITER:   1  RES: 1.5261E-13  CFAC: 0.050
 ---------------------------------------------------------
 PCG ITERATIONS                    :    1
 DAMPING                           : 1.000
 L2-NORM OF RESIDUAL               : 1.5261E-13
 MAX HEAD CHANGE                   : 8.7114E-10
 MAX HEAD CHANGE AT (COL,ROW,LAY)  : (    36,     8,     1)
 ---------------------------------------------------------

 -------------------------------
 TIME STEP            :      1
 STRESS PERIOD        :      1
 GMG CALLS            :      4
 PCG ITERATIONS       :      4
 -------------------------------
 TOTAL PCG ITERATIONS :     60
 -------------------------------

 ITER:   0  RES: 2.5009E-08  CFAC: 1.000
 ITER:   1  RES: 1.0251E-23  CFAC: 0.000
 ---------------------------------------------------------
 PCG ITERATIONS                    :    1
 DAMPING                           : 1.000
 L2-NORM OF RESIDUAL               : 1.0251E-23
 MAX HEAD CHANGE                   : 3.2653E-05
 MAX HEAD CHANGE AT (COL,ROW,LAY)  : (    83,   100,     1)
 ---------------------------------------------------------

 ITER:   0  RES: 4.1823E-18  CFAC: 1.000
 ITER:   1  RES: 1.1613E-33  CFAC: 0.000
 ---------------------------------------------------------
 PCG ITERATIONS                    :    1
 DAMPING                           : 1.000
 L2-NORM OF RESIDUAL               : 1.1613E-33
 MAX HEAD CHANGE                   : 3.5658E-15
 MAX HEAD CHANGE AT (COL,ROW,LAY)  : (   133,     1,     1)
 ---------------------------------------------------------

 -------------------------------
 TIME STEP            :      1
 STRESS PERIOD        :      1
 GMG CALLS            :      2
 PCG ITERATIONS       :      2
 -------------------------------
 TOTAL PCG ITERATIONS :     62
 -------------------------------

 ITER:   0  RES: 1.0820E-07  CFAC: 1.000
 ITER:   1  RES: 2.2420E-09  CFAC: 0.021
 ---------------------------------------------------------
 PCG ITERATIONS                    :    1
 DAMPING                           : 1.000
 L2-NORM OF RESIDUAL               : 2.2420E-09
 MAX HEAD CHANGE                   : 3.0875E-05
 MAX HEAD CHANGE AT (COL,ROW,LAY)  : (    82,    99,     1)
 ---------------------------------------------------------

 ITER:   0  RES: 2.2420E-09  CFAC: 1.000
 ITER:   1  RES: 9.6698E-11  CFAC: 0.043
 ---------------------------------------------------------
 PCG ITERATIONS                    :    1
 DAMPING                           : 1.000
 L2-NORM OF RESIDUAL               : 9.6698E-11
 MAX HEAD CHANGE                   : 1.2405E-06
 MAX HEAD CHANGE AT (COL,ROW,LAY)  : (    83,    94,     1)
 ---------------------------------------------------------

 ITER:   0  RES: 9.6698E-11  CFAC: 1.000
 ITER:   1  RES: 2.8139E-12  CFAC: 0.029
 ---------------------------------------------------------
 PCG ITERATIONS                    :    1
 DAMPING                           : 1.000
 L2-NORM OF RESIDUAL               : 2.8139E-12
 MAX HEAD CHANGE                   : 2.4099E-08
 MAX HEAD CHANGE AT (COL,ROW,LAY)  : (    82,    99,     1)
 ---------------------------------------------------------

 ITER:   0  RES: 2.8139E-12  CFAC: 1.000
 ITER:   1  RES: 1.3755E-13  CFAC: 0.049
 ---------------------------------------------------------
 PCG ITERATIONS                    :    1
 DAMPING                           : 1.000
 L2-NORM OF RESIDUAL               : 1.3755E-13
 MAX HEAD CHANGE                   : 1.2571E-09
 MAX HEAD CHANGE AT (COL,ROW,LAY)  : (    84,    94,     1)
 ---------------------------------------------------------

 -------------------------------
 TIME STEP            :      1
 STRESS PERIOD        :      1
 GMG CALLS            :      4
 PCG ITERATIONS       :      4
 -------------------------------
 TOTAL PCG ITERATIONS :     66
 -------------------------------

 ITER:   0  RES: 1.4105E-08  CFAC: 1.000
 ITER:   1  RES: 4.6398E-24  CFAC: 0.000
 ---------------------------------------------------------
 PCG ITERATIONS                    :    1
 DAMPING                           : 1.000
 L2-NORM OF RESIDUAL               : 4.6398E-24
 MAX HEAD CHANGE                   : 1.8329E-05
 MAX HEAD CHANGE AT (COL,ROW,LAY)  : (    83,   100,     1)
 ---------------------------------------------------------

 ITER:   0  RES: 4.0683E-18  CFAC: 1.000
 ITER:   1  RES: 5.1557E-34  CFAC: 0.000
 ---------------------------------------------------------
 PCG ITERATIONS                    :    1
 DAMPING                           : 1.000
 L2-NORM OF RESIDUAL               : 5.1557E-34
 MAX HEAD CHANGE                   : 2.0801E-15
 MAX HEAD CHANGE AT (COL,ROW,LAY)  : (    40,   100,     1)
 ---------------------------------------------------------

 -------------------------------
 TIME STEP            :      1
 STRESS PERIOD        :      1
 GMG CALLS            :      2
 PCG ITERATIONS       :      2
 -------------------------------
 TOTAL PCG ITERATIONS :     68
 -------------------------------

 ITER:   0  RES: 6.2918E-08  CFAC: 1.000
 ITER:   1  RES: 1.3268E-09  CFAC: 0.021
 ---------------------------------------------------------
 PCG ITERATIONS                    :    1
 DAMPING                           : 1.000
 L2-NORM OF RESIDUAL               : 1.3268E-09
 MAX HEAD CHANGE                   : 1.7361E-05
 MAX HEAD CHANGE AT (COL,ROW,LAY)  : (    82,    99,     1)
 ---------------------------------------------------------

 ITER:   0  RES: 1.3268E-09  CFAC: 1.000
 ITER:   1  RES: 5.9104E-11  CFAC: 0.045
 ---------------------------------------------------------
 PCG ITERATIONS                    :    1
 DAMPING                           : 1.000
 L2-NORM OF RESIDUAL               : 5.9104E-11
 MAX HEAD CHANGE                   : 6.7168E-07
 MAX HEAD CHANGE AT (COL,ROW,LAY)  : (    84,    94,     1)
 ---------------------------------------------------------

 ITER:   0  RES: 5.9104E-11  CFAC: 1.000
 ITER:   1  RES: 1.8014E-12  CFAC: 0.030
 ---------------------------------------------------------
 PCG ITERATIONS                    :    1
 DAMPING                           : 1.000
 L2-NORM OF RESIDUAL               : 1.8014E-12
 MAX HEAD CHANGE                   : 1.4035E-08
 MAX HEAD CHANGE AT (COL,ROW,LAY)  : (    82,    99,     1)
 ---------------------------------------------------------

 ITER:   0  RES: 1.8014E-12  CFAC: 1.000
 ITER:   1  RES: 9.2141E-14  CFAC: 0.051
 ---------------------------------------------------------
 PCG ITERATIONS                    :    1
 DAMPING                           : 1.000
 L2-NORM OF RESIDUAL               : 9.2141E-14
 MAX HEAD CHANGE                   : 7.2022E-10
 MAX HEAD CHANGE AT (COL,ROW,LAY)  : (    84,    94,     1)
 ---------------------------------------------------------

 -------------------------------
 TIME STEP            :      1
 STRESS PERIOD        :      1
 GMG CALLS            :      4
 PCG ITERATIONS       :      4
 -------------------------------
 TOTAL PCG ITERATIONS :     72
 -------------------------------

 ITER:   0  RES: 4.4662E-09  CFAC: 1.000
 ITER:   1  RES: 1.8527E-24  CFAC: 0.000
 ---------------------------------------------------------
 PCG ITERATIONS                    :    1
 DAMPING                           : 1.000
 L2-NORM OF RESIDUAL               : 1.8527E-24
 MAX HEAD CHANGE                   : 5.5576E-06
 MAX HEAD CHANGE AT (COL,ROW,LAY)  : (    81,   100,     1)
 ---------------------------------------------------------

 ITER:   0  RES: 4.1541E-18  CFAC: 1.000
 ITER:   1  RES: 1.1456E-33  CFAC: 0.000
 ---------------------------------------------------------
 PCG ITERATIONS                    :    1
 DAMPING                           : 1.000
 L2-NORM OF RESIDUAL               : 1.1456E-33
 MAX HEAD CHANGE                   : 3.3757E-15
 MAX HEAD CHANGE AT (COL,ROW,LAY)  : (   154,    41,     1)
 ---------------------------------------------------------

 -------------------------------
 TIME STEP            :      1
 STRESS PERIOD        :      1
 GMG CALLS            :      2
 PCG ITERATIONS       :      2
 -------------------------------
 TOTAL PCG ITERATIONS :     74
 -------------------------------

 ITER:   0  RES: 2.6603E-08  CFAC: 1.000
 ITER:   1  RES: 4.3764E-10  CFAC: 0.016
 ---------------------------------------------------------
 PCG ITERATIONS                    :    1
 DAMPING                           : 1.000
 L2-NORM OF RESIDUAL               : 4.3764E-10
 MAX HEAD CHANGE                   : 5.0778E-06
 MAX HEAD CHANGE AT (COL,ROW,LAY)  : (    81,    99,     1)
 ---------------------------------------------------------

 ITER:   0  RES: 4.3764E-10  CFAC: 1.000
 ITER:   1  RES: 2.0013E-11  CFAC: 0.046
 ---------------------------------------------------------
 PCG ITERATIONS                    :    1
 DAMPING                           : 1.000
 L2-NORM OF RESIDUAL               : 2.0013E-11
 MAX HEAD CHANGE                   : 2.0821E-07
 MAX HEAD CHANGE AT (COL,ROW,LAY)  : (    82,     7,     1)
 ---------------------------------------------------------

 ITER:   0  RES: 2.0013E-11  CFAC: 1.000
 ITER:   1  RES: 5.8279E-13  CFAC: 0.029
 ---------------------------------------------------------
 PCG ITERATIONS                    :    1
 DAMPING                           : 1.000
 L2-NORM OF RESIDUAL               : 5.8279E-13
 MAX HEAD CHANGE                   : 3.1735E-09
 MAX HEAD CHANGE AT (COL,ROW,LAY)  : (    80,     2,     1)
 ---------------------------------------------------------

 -------------------------------
 TIME STEP            :      1
 STRESS PERIOD        :      1
 GMG CALLS            :      3
 PCG ITERATIONS       :      3
 -------------------------------
 TOTAL PCG ITERATIONS :     77
 -------------------------------


 OUTPUT CONTROL FOR STRESS PERIOD    1   TIME STEP   1
    PRINT HEAD FOR ALL LAYERS
    SAVE HEAD FOR ALL LAYERS
    PRINT BUDGET
    SAVE BUDGET
 UBUDSV SAVING "   CONSTANT HEAD" ON UNIT 68 AT TIME STEP  1, STRESS PERIOD    1
 UBUDSV SAVING "FLOW RIGHT FACE " ON UNIT 68 AT TIME STEP  1, STRESS PERIOD    1
 UBUDSV SAVING "FLOW FRONT FACE " ON UNIT 68 AT TIME STEP  1, STRESS PERIOD    1
1
              HEAD IN LAYER   1 AT END OF TIME STEP   1 IN STRESS PERIOD    1
  ---------------------------------------------------------------------------

            1           2           3           4           5           6           7           8           9          10
           11          12          13          14          15          16          17          18          19          20
           21          22          23          24          25          26          27          28          29          30
           31          32          33          34          35          36          37          38          39          40
           41          42          43          44          45          46          47          48          49          50
           51          52          53          54          55          56          57          58          59          60
           61          62          63          64          65          66          67          68          69          70
           71          72          73          74          75          76          77          78          79          80
           81          82          83          84          85          86          87          88          89          90
           91          92          93          94          95          96          97          98          99         100
          101         102         103         104         105         106         107         108         109         110
          111         112         113         114         115         116         117         118         119         120
          121         122         123         124         125         126         127         128         129         130
          131         132         133         134         135         136         137         138         139         140
          141         142         143         144         145         146         147         148         149         150
          151         152         153         154
 ........................................................................................................................
   1    2.944       2.939       2.934       2.929       2.924       2.919       2.913       2.908       2.903       2.898    
        2.893       2.887       2.882       2.876       2.871       2.865       2.860       2.854       2.849       2.843    
        2.837       2.832       2.826       2.820       2.815       2.809       2.803       2.798       2.792       2.787    
        2.781       2.776       2.770       2.765       2.759       2.754       2.748       2.744       2.739       2.734    
        2.730       2.725       2.720       2.716       2.711       2.706       2.703       2.700       2.697       2.694    
        2.692       2.689       2.686       2.683       2.680       2.680       2.680       2.679       2.679       2.679    
        2.679       2.679       2.679       2.679       2.683       2.688       2.692       2.696       2.700       2.704    
        2.709       2.713       2.717       2.727       2.736       2.746       2.756       2.765       2.775       2.785    
        2.794       2.804       2.819       2.835       2.850       2.866       2.882       2.897       2.913       2.928    
        2.944       2.965       2.986       3.007       3.027       3.048       3.069       3.090       3.111       3.132    
        3.158       3.183       3.208       3.233       3.258       3.284       3.309       3.334       3.359       3.388    
        3.416       3.444       3.472       3.500       3.528       3.557       3.585       3.613       3.643       3.673    
        3.702       3.732       3.762       3.792       3.822       3.852       3.882       3.912       3.943       3.974    
        4.004       4.035       4.066       4.096       4.127       4.157       4.188       4.219       4.250       4.281    
        4.312       4.343       4.373       4.404       4.435       4.466       4.496       4.527       4.558       4.588    
        4.619       4.649       4.680       4.711    
   2    2.936       2.931       2.925       2.920       2.915       2.909       2.904       2.899       2.893       2.888    
        2.882       2.877       2.871       2.865       2.860       2.854       2.848       2.842       2.837       2.831    
        2.825       2.819       2.813       2.807       2.801       2.795       2.789       2.783       2.777       2.772    
        2.766       2.760       2.754       2.748       2.743       2.737       2.731       2.726       2.721       2.716    
        2.711       2.706       2.701       2.696       2.691       2.686       2.682       2.679       2.675       2.672    
        2.668       2.665       2.662       2.659       2.656       2.655       2.654       2.653       2.653       2.652    
        2.652       2.652       2.652       2.653       2.655       2.659       2.662       2.666       2.670       2.674    
        2.678       2.683       2.689       2.697       2.705       2.714       2.723       2.733       2.743       2.753    
        2.763       2.775       2.789       2.803       2.818       2.834       2.849       2.865       2.881       2.898    
        2.915       2.935       2.955       2.976       2.997       3.018       3.040       3.061       3.083       3.106    
        3.130       3.155       3.181       3.206       3.232       3.258       3.283       3.310       3.336       3.364    
        3.392       3.420       3.449       3.477       3.506       3.535       3.564       3.593       3.623       3.653    
        3.683       3.713       3.743       3.773       3.804       3.834       3.865       3.895       3.926       3.957    
        3.988       4.019       4.050       4.081       4.112       4.143       4.174       4.205       4.237       4.268    
        4.299       4.330       4.361       4.392       4.423       4.454       4.485       4.516       4.547       4.578    
        4.609       4.639       4.670       4.701    
   3    2.928       2.922       2.917       2.911       2.906       2.900       2.895       2.889       2.884       2.878    
        2.872       2.866       2.861       2.855       2.849       2.843       2.837       2.831       2.825       2.818    
        2.812       2.806       2.800       2.794       2.787       2.781       2.775       2.769       2.763       2.756    
        2.750       2.744       2.738       2.732       2.726       2.720       2.714       2.708       2.703       2.697    
        2.692       2.686       2.681       2.675       2.670       2.666       2.661       2.657       2.653       2.649    
        2.645       2.641       2.638       2.635       2.632       2.630       2.628       2.627       2.626       2.625    
        2.624       2.624       2.624       2.625       2.627       2.629       2.632       2.636       2.639       2.643    
        2.648       2.653       2.658       2.666       2.673       2.682       2.691       2.700       2.710       2.721    
        2.732       2.744       2.757       2.771       2.786       2.801       2.817       2.833       2.850       2.867    
        2.885       2.904       2.925       2.945       2.966       2.988       3.010       3.032       3.055       3.078    
        3.103       3.128       3.153       3.179       3.205       3.231       3.258       3.285       3.312       3.340    
        3.368       3.397       3.426       3.455       3.484       3.513       3.542       3.572       3.602       3.632    
        3.663       3.693       3.724       3.755       3.785       3.816       3.847       3.878       3.910       3.941    
        3.972       4.003       4.035       4.066       4.097       4.129       4.160       4.192       4.223       4.254    
        4.286       4.317       4.349       4.380       4.411       4.443       4.474       4.505       4.536       4.567    
        4.598       4.629       4.660       4.692    
   4    2.920       2.914       2.908       2.903       2.897       2.891       2.886       2.880       2.874       2.868    
        2.862       2.856       2.850       2.844       2.838       2.831       2.825       2.819       2.813       2.806    
        2.800       2.793       2.787       2.780       2.774       2.767       2.761       2.754       2.748       2.741    
        2.735       2.728       2.722       2.715       2.709       2.703       2.696       2.690       2.684       2.678    
        2.672       2.667       2.661       2.655       2.650       2.644       2.639       2.635       2.630       2.626    
        2.621       2.617       2.614       2.610       2.607       2.604       2.602       2.600       2.599       2.597    
        2.597       2.596       2.596       2.597       2.598       2.600       2.602       2.605       2.608       2.612    
        2.616       2.621       2.627       2.634       2.641       2.649       2.658       2.667       2.677       2.688    
        2.699       2.711       2.724       2.738       2.753       2.768       2.784       2.800       2.817       2.835    
        2.854       2.873       2.893       2.914       2.936       2.957       2.980       3.003       3.026       3.050    
        3.074       3.100       3.125       3.151       3.178       3.205       3.232       3.259       3.287       3.315    
        3.344       3.373       3.402       3.432       3.461       3.491       3.521       3.551       3.582       3.612    
        3.643       3.674       3.705       3.736       3.767       3.798       3.830       3.861       3.893       3.924    
        3.956       3.988       4.019       4.051       4.083       4.114       4.146       4.178       4.210       4.241    
        4.273       4.305       4.336       4.368       4.399       4.431       4.462       4.494       4.525       4.557    
        4.588       4.619       4.651       4.682    
   5    2.911       2.906       2.900       2.894       2.888       2.882       2.876       2.870       2.864       2.858    
        2.852       2.846       2.839       2.833       2.827       2.820       2.814       2.807       2.801       2.794    
        2.787       2.781       2.774       2.767       2.760       2.753       2.747       2.740       2.733       2.726    
        2.719       2.712       2.706       2.699       2.692       2.685       2.679       2.672       2.666       2.659    
        2.653       2.647       2.641       2.635       2.629       2.623       2.618       2.612       2.607       2.602    
        2.598       2.593       2.589       2.585       2.582       2.579       2.576       2.573       2.571       2.570    
        2.568       2.567       2.567       2.567       2.568       2.569       2.571       2.574       2.577       2.580    
        2.584       2.589       2.595       2.601       2.608       2.616       2.625       2.634       2.644       2.654    
        2.666       2.678       2.691       2.705       2.719       2.735       2.751       2.767       2.785       2.803    
        2.821       2.841       2.861       2.882       2.904       2.926       2.949       2.972       2.996       3.021    
        3.046       3.071       3.097       3.124       3.151       3.178       3.205       3.233       3.262       3.290    
        3.320       3.349       3.379       3.408       3.439       3.469       3.499       3.530       3.561       3.592    
        3.623       3.654       3.686       3.717       3.749       3.781       3.812       3.844       3.876       3.908    
        3.940       3.972       4.004       4.036       4.068       4.100       4.132       4.164       4.196       4.228    
        4.260       4.292       4.324       4.356       4.388       4.419       4.451       4.483       4.514       4.546    
        4.578       4.609       4.641       4.672    
   6    2.903       2.897       2.891       2.885       2.879       2.873       2.867       2.861       2.855       2.848    
        2.842       2.836       2.829       2.822       2.816       2.809       2.802       2.796       2.789       2.782    
        2.775       2.768       2.761       2.754       2.747       2.740       2.732       2.725       2.718       2.711    
        2.704       2.697       2.689       2.682       2.675       2.668       2.661       2.654       2.647       2.640    
        2.634       2.627       2.621       2.614       2.608       2.602       2.596       2.590       2.584       2.579    
        2.574       2.569       2.564       2.560       2.556       2.552       2.549       2.546       2.544       2.541    
        2.540       2.538       2.538       2.537       2.538       2.539       2.540       2.542       2.545       2.548    
        2.552       2.557       2.562       2.568       2.575       2.582       2.591       2.600       2.610       2.620    
        2.631       2.644       2.657       2.670       2.685       2.700       2.717       2.733       2.751       2.769    
        2.788       2.808       2.829       2.850       2.872       2.895       2.918       2.942       2.966       2.991    
        3.016       3.042       3.069       3.096       3.123       3.151       3.179       3.207       3.236       3.265    
        3.295       3.325       3.355       3.385       3.416       3.446       3.477       3.508       3.540       3.571    
        3.603       3.635       3.666       3.698       3.730       3.763       3.795       3.827       3.859       3.891    
        3.924       3.956       3.989       4.021       4.053       4.086       4.118       4.150       4.183       4.215    
        4.247       4.279       4.312       4.344       4.376       4.408       4.440       4.472       4.504       4.536    
        4.567       4.599       4.631       4.663    
   7    2.895       2.889       2.883       2.877       2.871       2.864       2.858       2.852       2.845       2.839    
        2.832       2.825       2.819       2.812       2.805       2.798       2.791       2.784       2.777       2.770    
        2.762       2.755       2.748       2.741       2.733       2.726       2.718       2.711       2.703       2.696    
        2.688       2.681       2.673       2.666       2.658       2.651       2.643       2.636       2.629       2.621    
        2.614       2.607       2.600       2.593       2.587       2.580       2.574       2.567       2.561       2.555    
        2.550       2.544       2.539       2.534       2.530       2.526       2.522       2.519       2.516       2.513    
        2.511       2.509       2.508       2.507       2.507       2.507       2.508       2.510       2.512       2.515    
        2.519       2.523       2.528       2.534       2.540       2.548       2.556       2.565       2.575       2.585    
        2.596       2.609       2.622       2.635       2.650       2.666       2.682       2.699       2.717       2.735    
        2.755       2.775       2.796       2.817       2.840       2.863       2.886       2.910       2.935       2.960    
        2.986       3.013       3.040       3.067       3.095       3.123       3.152       3.181       3.210       3.240    
        3.270       3.300       3.331       3.362       3.393       3.424       3.455       3.487       3.519       3.551    
        3.583       3.615       3.647       3.679       3.712       3.744       3.777       3.810       3.842       3.875    
        3.908       3.940       3.973       4.006       4.039       4.071       4.104       4.137       4.169       4.202    
        4.234       4.267       4.299       4.332       4.364       4.396       4.429       4.461       4.493       4.525    
        4.557       4.589       4.621       4.653    
   8    2.887       2.881       2.875       2.868       2.862       2.856       2.849       2.842       2.836       2.829    
        2.822       2.815       2.808       2.801       2.794       2.787       2.780       2.772       2.765       2.758    
        2.750       2.743       2.735       2.727       2.720       2.712       2.704       2.696       2.688       2.681    
        2.673       2.665       2.657       2.649       2.641       2.633       2.626       2.618       2.610       2.602    
        2.595       2.587       2.580       2.572       2.565       2.558       2.551       2.545       2.538       2.532    
        2.526       2.520       2.514       2.509       2.504       2.499       2.495       2.491       2.487       2.484    
        2.481       2.479       2.477       2.476       2.475       2.475       2.476       2.477       2.479       2.482    
        2.485       2.489       2.494       2.499       2.505       2.513       2.521       2.529       2.539       2.549    
        2.561       2.573       2.586       2.600       2.614       2.630       2.646       2.664       2.682       2.701    
        2.720       2.741       2.762       2.784       2.807       2.830       2.854       2.878       2.904       2.929    
        2.956       2.983       3.010       3.038       3.066       3.095       3.124       3.154       3.184       3.214    
        3.245       3.275       3.306       3.338       3.369       3.401       3.433       3.465       3.497       3.530    
        3.562       3.595       3.628       3.660       3.693       3.726       3.759       3.792       3.825       3.858    
        3.892       3.925       3.958       3.991       4.024       4.057       4.090       4.123       4.156       4.189    
        4.222       4.254       4.287       4.320       4.352       4.385       4.418       4.450       4.482       4.515    
        4.547       4.579       4.611       4.643    
   9    2.879       2.873       2.866       2.860       2.853       2.847       2.840       2.833       2.826       2.819    
        2.812       2.805       2.798       2.791       2.783       2.776       2.769       2.761       2.753       2.746    
        2.738       2.730       2.722       2.714       2.706       2.698       2.690       2.682       2.674       2.665    
        2.657       2.649       2.641       2.632       2.624       2.616       2.608       2.600       2.591       2.583    
        2.575       2.567       2.559       2.551       2.544       2.536       2.529       2.522       2.514       2.508    
        2.501       2.495       2.488       2.482       2.477       2.472       2.467       2.462       2.458       2.454    
        2.451       2.449       2.446       2.445       2.444       2.443       2.443       2.444       2.445       2.447    
        2.450       2.454       2.458       2.464       2.470       2.477       2.484       2.493       2.502       2.513    
        2.524       2.536       2.549       2.563       2.578       2.594       2.610       2.628       2.646       2.665    
        2.685       2.706       2.727       2.750       2.773       2.797       2.821       2.846       2.872       2.898    
        2.925       2.952       2.980       3.009       3.038       3.067       3.097       3.127       3.157       3.188    
        3.219       3.250       3.282       3.314       3.346       3.378       3.411       3.443       3.476       3.509    
        3.542       3.575       3.608       3.641       3.675       3.708       3.742       3.775       3.808       3.842    
        3.875       3.909       3.942       3.976       4.009       4.043       4.076       4.109       4.142       4.176    
        4.209       4.242       4.275       4.308       4.341       4.374       4.406       4.439       4.472       4.504    
        4.537       4.569       4.602       4.634    
  10    2.871       2.865       2.858       2.852       2.845       2.838       2.831       2.824       2.817       2.810    
        2.803       2.795       2.788       2.780       2.773       2.765       2.757       2.750       2.742       2.734    
        2.726       2.717       2.709       2.701       2.693       2.684       2.676       2.667       2.659       2.650    
        2.642       2.633       2.624       2.616       2.607       2.599       2.590       2.581       2.573       2.564    
        2.556       2.547       2.539       2.530       2.522       2.514       2.506       2.498       2.491       2.483    
        2.476       2.469       2.462       2.456       2.450       2.444       2.439       2.434       2.429       2.425    
        2.421       2.418       2.415       2.413       2.411       2.410       2.410       2.410       2.411       2.413    
        2.415       2.418       2.422       2.427       2.433       2.440       2.447       2.456       2.465       2.475    
        2.486       2.499       2.512       2.526       2.541       2.556       2.573       2.591       2.609       2.629    
        2.649       2.670       2.692       2.715       2.738       2.763       2.787       2.813       2.839       2.866    
        2.893       2.921       2.950       2.979       3.008       3.038       3.068       3.099       3.130       3.161    
        3.193       3.225       3.257       3.290       3.322       3.355       3.388       3.421       3.454       3.488    
        3.521       3.555       3.589       3.622       3.656       3.690       3.724       3.758       3.791       3.825    
        3.859       3.893       3.927       3.961       3.994       4.028       4.062       4.096       4.129       4.163    
        4.196       4.230       4.263       4.296       4.329       4.362       4.395       4.428       4.461       4.494    
        4.527       4.560       4.592       4.624    
  11    2.863       2.857       2.850       2.843       2.836       2.829       2.822       2.815       2.808       2.800    
        2.793       2.785       2.778       2.770       2.762       2.754       2.746       2.738       2.730       2.722    
        2.713       2.705       2.697       2.688       2.679       2.671       2.662       2.653       2.644       2.635    
        2.626       2.617       2.608       2.599       2.590       2.581       2.572       2.563       2.554       2.545    
        2.536       2.527       2.518       2.509       2.500       2.492       2.483       2.475       2.467       2.459    
        2.451       2.444       2.436       2.429       2.423       2.416       2.410       2.404       2.399       2.394    
        2.390       2.386       2.383       2.380       2.378       2.376       2.375       2.375       2.376       2.377    
        2.379       2.382       2.386       2.390       2.396       2.402       2.409       2.418       2.427       2.437    
        2.448       2.460       2.473       2.487       2.502       2.518       2.535       2.553       2.572       2.592    
        2.612       2.634       2.656       2.679       2.703       2.728       2.753       2.779       2.806       2.834    
        2.862       2.890       2.919       2.949       2.979       3.009       3.040       3.071       3.103       3.135    
        3.167       3.200       3.232       3.265       3.298       3.332       3.365       3.399       3.433       3.467    
        3.501       3.535       3.569       3.603       3.637       3.672       3.706       3.740       3.775       3.809    
        3.843       3.877       3.912       3.946       3.980       4.014       4.048       4.082       4.116       4.150    
        4.183       4.217       4.251       4.284       4.318       4.351       4.385       4.418       4.451       4.484    
        4.517       4.550       4.583       4.615    
  12    2.856       2.849       2.842       2.835       2.828       2.821       2.814       2.806       2.799       2.791    
        2.783       2.776       2.768       2.760       2.752       2.744       2.735       2.727       2.718       2.710    
        2.701       2.693       2.684       2.675       2.666       2.657       2.648       2.639       2.630       2.620    
        2.611       2.601       2.592       2.583       2.573       2.564       2.554       2.545       2.535       2.526    
        2.516       2.507       2.497       2.488       2.479       2.470       2.461       2.452       2.443       2.434    
        2.426       2.418       2.410       2.402       2.395       2.388       2.381       2.375       2.369       2.364    
        2.359       2.354       2.350       2.347       2.344       2.342       2.341       2.340       2.340       2.341    
        2.342       2.345       2.348       2.352       2.357       2.364       2.371       2.379       2.388       2.398    
        2.409       2.421       2.434       2.448       2.463       2.479       2.497       2.515       2.534       2.554    
        2.575       2.597       2.620       2.643       2.667       2.693       2.719       2.745       2.773       2.800    
        2.829       2.858       2.888       2.918       2.949       2.980       3.011       3.043       3.075       3.108    
        3.141       3.174       3.207       3.241       3.274       3.308       3.342       3.377       3.411       3.445    
        3.480       3.515       3.549       3.584       3.619       3.653       3.688       3.723       3.758       3.792    
        3.827       3.862       3.896       3.931       3.965       4.000       4.034       4.068       4.103       4.137    
        4.171       4.205       4.239       4.273       4.306       4.340       4.374       4.407       4.441       4.474    
        4.507       4.540       4.573       4.606    
  13    2.849       2.842       2.834       2.827       2.820       2.812       2.805       2.797       2.790       2.782    
        2.774       2.766       2.758       2.750       2.741       2.733       2.724       2.716       2.707       2.698    
        2.689       2.680       2.671       2.662       2.653       2.643       2.634       2.624       2.615       2.605    
        2.596       2.586       2.576       2.566       2.556       2.546       2.536       2.526       2.516       2.506    
        2.496       2.486       2.476       2.467       2.457       2.447       2.437       2.428       2.419       2.410    
        2.401       2.392       2.383       2.375       2.367       2.359       2.352       2.345       2.339       2.332    
        2.327       2.322       2.317       2.313       2.310       2.307       2.305       2.304       2.303       2.304    
        2.305       2.307       2.310       2.314       2.318       2.324       2.331       2.339       2.348       2.358    
        2.369       2.381       2.394       2.408       2.423       2.440       2.457       2.475       2.495       2.515    
        2.536       2.559       2.582       2.606       2.631       2.657       2.683       2.710       2.738       2.767    
        2.796       2.826       2.856       2.887       2.918       2.950       2.982       3.015       3.047       3.081    
        3.114       3.148       3.182       3.216       3.250       3.285       3.320       3.354       3.389       3.424    
        3.459       3.494       3.529       3.565       3.600       3.635       3.670       3.705       3.741       3.776    
        3.811       3.846       3.881       3.916       3.951       3.986       4.020       4.055       4.090       4.124    
        4.158       4.193       4.227       4.261       4.295       4.329       4.363       4.397       4.430       4.464    
        4.497       4.531       4.564       4.597    
  14    2.841       2.834       2.827       2.819       2.812       2.804       2.796       2.789       2.781       2.773    
        2.764       2.756       2.748       2.739       2.731       2.722       2.714       2.705       2.696       2.687    
        2.677       2.668       2.659       2.649       2.640       2.630       2.620       2.610       2.600       2.590    
        2.580       2.570       2.560       2.549       2.539       2.529       2.518       2.508       2.497       2.487    
        2.476       2.466       2.455       2.445       2.435       2.424       2.414       2.404       2.394       2.385    
        2.375       2.366       2.356       2.347       2.339       2.330       2.322       2.315       2.308       2.301    
        2.295       2.289       2.284       2.279       2.275       2.272       2.269       2.267       2.266       2.266    
        2.266       2.268       2.270       2.274       2.278       2.284       2.290       2.298       2.307       2.316    
        2.327       2.339       2.352       2.367       2.382       2.399       2.416       2.435       2.455       2.475    
        2.497       2.520       2.544       2.568       2.594       2.620       2.647       2.675       2.703       2.733    
        2.762       2.793       2.824       2.855       2.887       2.920       2.952       2.986       3.019       3.053    
        3.087       3.122       3.156       3.191       3.226       3.261       3.296       3.332       3.367       3.403    
        3.438       3.474       3.510       3.545       3.581       3.617       3.653       3.688       3.724       3.759    
        3.795       3.830       3.866       3.901       3.936       3.971       4.007       4.042       4.076       4.111    
        4.146       4.181       4.215       4.250       4.284       4.318       4.352       4.386       4.420       4.454    
        4.488       4.521       4.555       4.588    
  15    2.834       2.826       2.819       2.811       2.804       2.796       2.788       2.780       2.772       2.764    
        2.755       2.747       2.738       2.730       2.721       2.712       2.703       2.694       2.684       2.675    
        2.666       2.656       2.646       2.636       2.627       2.616       2.606       2.596       2.586       2.575    
        2.565       2.554       2.544       2.533       2.522       2.511       2.500       2.490       2.479       2.468    
        2.457       2.446       2.435       2.424       2.413       2.402       2.391       2.380       2.370       2.359    
        2.349       2.339       2.329       2.320       2.310       2.301       2.293       2.284       2.276       2.269    
        2.262       2.255       2.249       2.244       2.239       2.235       2.232       2.230       2.228       2.227    
        2.227       2.228       2.230       2.233       2.237       2.242       2.249       2.256       2.264       2.274    
        2.285       2.297       2.310       2.324       2.340       2.357       2.375       2.394       2.414       2.435    
        2.457       2.480       2.504       2.529       2.556       2.582       2.610       2.639       2.668       2.698    
        2.728       2.759       2.791       2.823       2.856       2.889       2.923       2.957       2.991       3.025    
        3.060       3.095       3.130       3.166       3.202       3.237       3.273       3.309       3.345       3.381    
        3.418       3.454       3.490       3.526       3.562       3.599       3.635       3.671       3.707       3.743    
        3.779       3.815       3.851       3.886       3.922       3.957       3.993       4.028       4.063       4.099    
        4.134       4.169       4.203       4.238       4.273       4.307       4.342       4.376       4.410       4.444    
        4.478       4.512       4.546       4.580    
  16    2.826       2.819       2.811       2.803       2.796       2.788       2.779       2.771       2.763       2.755    
        2.746       2.737       2.729       2.720       2.711       2.701       2.692       2.683       2.673       2.664    
        2.654       2.644       2.634       2.624       2.614       2.603       2.593       2.582       2.571       2.561    
        2.550       2.539       2.528       2.517       2.505       2.494       2.483       2.471       2.460       2.448    
        2.437       2.425       2.414       2.402       2.391       2.379       2.368       2.356       2.345       2.334    
[...]
        4.427       4.462       4.497       4.531    
  92    2.795       2.787       2.779       2.771       2.763       2.755       2.746       2.738       2.729       2.720    
        2.711       2.702       2.693       2.684       2.674       2.664       2.655       2.645       2.635       2.624    
        2.614       2.604       2.593       2.582       2.571       2.560       2.549       2.538       2.526       2.515    
        2.503       2.491       2.479       2.467       2.455       2.443       2.431       2.418       2.406       2.393    
        2.381       2.368       2.355       2.343       2.330       2.317       2.305       2.292       2.280       2.267    
        2.255       2.243       2.231       2.219       2.208       2.196       2.186       2.175       2.165       2.155    
        2.146       2.137       2.129       2.121       2.114       2.108       2.103       2.098       2.095       2.092    
        2.090       2.090       2.090       2.092       2.094       2.098       2.104       2.110       2.118       2.127    
        2.138       2.150       2.163       2.178       2.194       2.211       2.230       2.250       2.271       2.294    
        2.317       2.342       2.368       2.395       2.423       2.452       2.482       2.512       2.544       2.576    
        2.609       2.642       2.676       2.711       2.746       2.781       2.817       2.853       2.890       2.926    
        2.963       3.001       3.038       3.075       3.113       3.151       3.189       3.227       3.265       3.302    
        3.340       3.378       3.416       3.454       3.492       3.530       3.567       3.605       3.642       3.680    
        3.717       3.754       3.791       3.828       3.865       3.902       3.938       3.975       4.011       4.047    
        4.083       4.119       4.155       4.191       4.226       4.261       4.297       4.332       4.367       4.402    
        4.436       4.471       4.505       4.539    
  93    2.802       2.794       2.786       2.778       2.770       2.762       2.754       2.746       2.737       2.728    
        2.720       2.711       2.702       2.693       2.683       2.674       2.664       2.655       2.645       2.635    
        2.625       2.615       2.605       2.594       2.584       2.573       2.562       2.551       2.540       2.529    
        2.518       2.506       2.495       2.483       2.472       2.460       2.448       2.436       2.424       2.412    
        2.400       2.388       2.376       2.364       2.352       2.340       2.328       2.316       2.304       2.292    
        2.281       2.270       2.258       2.247       2.237       2.226       2.216       2.206       2.197       2.188    
        2.180       2.172       2.164       2.158       2.152       2.146       2.142       2.138       2.135       2.133    
        2.132       2.132       2.133       2.135       2.138       2.143       2.148       2.155       2.163       2.173    
        2.183       2.195       2.209       2.223       2.239       2.256       2.275       2.294       2.315       2.337    
        2.360       2.384       2.410       2.436       2.463       2.491       2.520       2.550       2.581       2.612    
        2.644       2.677       2.710       2.744       2.778       2.812       2.847       2.883       2.918       2.954    
        2.991       3.027       3.064       3.101       3.138       3.175       3.212       3.249       3.286       3.324    
        3.361       3.398       3.436       3.473       3.510       3.547       3.584       3.622       3.659       3.696    
        3.732       3.769       3.806       3.842       3.879       3.915       3.951       3.987       4.023       4.059    
        4.095       4.130       4.166       4.201       4.236       4.272       4.307       4.341       4.376       4.411    
        4.445       4.479       4.514       4.548    
  94    2.809       2.801       2.793       2.786       2.778       2.770       2.762       2.754       2.745       2.737    
        2.728       2.720       2.711       2.702       2.693       2.684       2.675       2.665       2.656       2.646    
        2.636       2.626       2.616       2.606       2.596       2.586       2.575       2.565       2.554       2.543    
        2.532       2.521       2.510       2.499       2.488       2.477       2.465       2.454       2.442       2.431    
        2.419       2.408       2.396       2.385       2.374       2.362       2.351       2.340       2.328       2.317    
        2.307       2.296       2.285       2.275       2.265       2.256       2.246       2.237       2.229       2.221    
        2.213       2.206       2.199       2.193       2.188       2.183       2.180       2.177       2.174       2.173    
        2.173       2.173       2.175       2.177       2.181       2.186       2.192       2.199       2.207       2.217    
        2.228       2.240       2.253       2.267       2.283       2.300       2.318       2.338       2.358       2.379    
        2.402       2.426       2.450       2.476       2.503       2.530       2.558       2.587       2.617       2.648    
        2.679       2.711       2.743       2.776       2.810       2.843       2.878       2.912       2.947       2.982    
        3.018       3.053       3.089       3.126       3.162       3.198       3.235       3.271       3.308       3.345    
        3.381       3.418       3.455       3.492       3.528       3.565       3.602       3.638       3.675       3.711    
        3.748       3.784       3.820       3.856       3.893       3.928       3.964       4.000       4.036       4.071    
        4.107       4.142       4.177       4.212       4.247       4.282       4.316       4.351       4.385       4.420    
        4.454       4.488       4.522       4.556    
  95    2.816       2.808       2.801       2.793       2.785       2.778       2.770       2.762       2.754       2.745    
        2.737       2.729       2.720       2.711       2.703       2.694       2.685       2.676       2.666       2.657    
        2.647       2.638       2.628       2.618       2.608       2.598       2.588       2.578       2.568       2.557    
        2.547       2.536       2.526       2.515       2.504       2.493       2.483       2.472       2.461       2.450    
        2.439       2.428       2.417       2.406       2.395       2.384       2.374       2.363       2.353       2.342    
        2.332       2.322       2.312       2.303       2.294       2.285       2.276       2.268       2.260       2.253    
        2.246       2.239       2.234       2.228       2.224       2.220       2.217       2.215       2.213       2.212    
        2.212       2.213       2.216       2.219       2.223       2.228       2.235       2.242       2.250       2.260    
        2.271       2.283       2.296       2.311       2.326       2.343       2.361       2.380       2.400       2.421    
        2.443       2.466       2.490       2.515       2.541       2.568       2.596       2.624       2.653       2.683    
        2.713       2.744       2.776       2.808       2.841       2.874       2.907       2.941       2.975       3.010    
        3.045       3.080       3.115       3.150       3.186       3.222       3.258       3.293       3.330       3.366    
        3.402       3.438       3.474       3.510       3.547       3.583       3.619       3.655       3.691       3.727    
        3.763       3.799       3.835       3.871       3.906       3.942       3.977       4.013       4.048       4.083    
        4.118       4.153       4.188       4.223       4.258       4.292       4.327       4.361       4.395       4.429    
        4.463       4.497       4.531       4.565    
  96    2.823       2.815       2.808       2.800       2.793       2.785       2.778       2.770       2.762       2.754    
        2.746       2.738       2.729       2.721       2.712       2.704       2.695       2.686       2.677       2.668    
        2.659       2.650       2.640       2.631       2.621       2.611       2.602       2.592       2.582       2.572    
        2.562       2.552       2.541       2.531       2.521       2.510       2.500       2.490       2.479       2.469    
        2.458       2.448       2.437       2.427       2.417       2.407       2.396       2.387       2.377       2.367    
        2.357       2.348       2.339       2.330       2.322       2.313       2.306       2.298       2.291       2.284    
        2.278       2.272       2.267       2.263       2.259       2.256       2.254       2.252       2.251       2.251    
        2.251       2.253       2.255       2.259       2.264       2.269       2.276       2.284       2.292       2.302    
        2.313       2.325       2.338       2.353       2.368       2.385       2.402       2.421       2.440       2.461    
        2.483       2.505       2.529       2.554       2.579       2.605       2.632       2.660       2.688       2.717    
        2.747       2.777       2.808       2.840       2.872       2.904       2.937       2.970       3.003       3.037    
        3.071       3.106       3.140       3.175       3.210       3.245       3.280       3.316       3.351       3.387    
        3.422       3.458       3.494       3.529       3.565       3.601       3.636       3.672       3.708       3.743    
        3.779       3.814       3.850       3.885       3.920       3.956       3.991       4.026       4.061       4.096    
        4.130       4.165       4.200       4.234       4.268       4.303       4.337       4.371       4.405       4.439    
        4.472       4.506       4.540       4.573    
  97    2.830       2.822       2.815       2.808       2.801       2.793       2.786       2.778       2.770       2.763    
        2.755       2.747       2.739       2.730       2.722       2.714       2.705       2.697       2.688       2.679    
        2.670       2.661       2.652       2.643       2.634       2.624       2.615       2.606       2.596       2.586    
        2.577       2.567       2.557       2.547       2.537       2.527       2.517       2.507       2.497       2.488    
        2.478       2.468       2.458       2.448       2.438       2.429       2.419       2.410       2.401       2.392    
        2.383       2.374       2.365       2.357       2.349       2.342       2.335       2.328       2.322       2.316    
        2.310       2.305       2.300       2.296       2.293       2.291       2.290       2.289       2.288       2.288    
        2.289       2.291       2.294       2.298       2.303       2.310       2.317       2.325       2.333       2.343    
        2.354       2.366       2.379       2.393       2.409       2.426       2.443       2.461       2.480       2.500    
        2.521       2.544       2.567       2.591       2.616       2.642       2.668       2.695       2.723       2.751    
        2.780       2.810       2.840       2.871       2.903       2.934       2.966       2.998       3.031       3.064    
        3.098       3.131       3.165       3.200       3.234       3.268       3.303       3.338       3.373       3.408    
        3.443       3.478       3.513       3.548       3.583       3.619       3.654       3.689       3.724       3.759    
        3.794       3.830       3.865       3.900       3.934       3.969       4.004       4.039       4.073       4.108    
        4.142       4.177       4.211       4.245       4.279       4.313       4.347       4.381       4.414       4.448    
        4.482       4.515       4.549       4.582    
  98    2.837       2.830       2.822       2.815       2.808       2.801       2.794       2.786       2.779       2.772    
        2.764       2.756       2.748       2.740       2.732       2.724       2.716       2.707       2.699       2.691    
        2.682       2.673       2.664       2.655       2.646       2.638       2.628       2.619       2.610       2.601    
        2.591       2.582       2.573       2.563       2.554       2.544       2.535       2.525       2.516       2.506    
        2.497       2.488       2.478       2.469       2.460       2.450       2.442       2.433       2.424       2.416    
        2.408       2.400       2.392       2.384       2.377       2.370       2.364       2.358       2.352       2.347    
        2.342       2.337       2.333       2.329       2.327       2.326       2.325       2.325       2.325       2.325    
        2.326       2.328       2.332       2.336       2.342       2.349       2.357       2.365       2.373       2.383    
        2.393       2.405       2.419       2.433       2.449       2.466       2.483       2.501       2.519       2.538    
        2.559       2.581       2.604       2.628       2.653       2.678       2.704       2.730       2.756       2.784    
        2.813       2.842       2.872       2.902       2.933       2.964       2.995       3.026       3.058       3.091    
        3.124       3.157       3.190       3.224       3.258       3.292       3.325       3.360       3.394       3.428    
        3.463       3.498       3.532       3.567       3.602       3.636       3.671       3.706       3.741       3.775    
        3.810       3.845       3.879       3.914       3.949       3.983       4.018       4.052       4.086       4.120    
        4.154       4.188       4.222       4.256       4.290       4.324       4.357       4.391       4.424       4.457    
        4.491       4.524       4.557       4.591    
  99    2.844       2.837       2.830       2.823       2.816       2.809       2.802       2.795       2.788       2.781    
        2.773       2.765       2.758       2.750       2.742       2.734       2.726       2.718       2.710       2.702    
        2.693       2.685       2.676       2.668       2.659       2.651       2.642       2.633       2.624       2.615    
        2.606       2.597       2.588       2.579       2.570       2.561       2.552       2.543       2.534       2.525    
        2.516       2.507       2.498       2.490       2.481       2.472       2.464       2.456       2.448       2.440    
        2.433       2.425       2.417       2.410       2.403       2.397       2.392       2.387       2.382       2.377    
        2.373       2.368       2.364       2.361       2.360       2.360       2.360       2.360       2.361       2.362    
        2.363       2.365       2.368       2.373       2.380       2.388       2.396       2.404       2.413       2.422    
        2.432       2.443       2.457       2.472       2.489       2.505       2.522       2.539       2.557       2.575    
        2.595       2.617       2.641       2.665       2.689       2.714       2.739       2.764       2.789       2.816    
        2.844       2.873       2.903       2.933       2.963       2.993       3.023       3.054       3.085       3.117    
        3.150       3.182       3.215       3.248       3.281       3.315       3.348       3.381       3.415       3.449    
        3.483       3.517       3.552       3.586       3.620       3.654       3.688       3.723       3.757       3.791    
        3.826       3.860       3.894       3.929       3.963       3.997       4.031       4.065       4.099       4.133    
        4.167       4.200       4.234       4.268       4.301       4.335       4.368       4.401       4.434       4.467    
        4.500       4.533       4.566       4.599    
 100    2.851       2.844       2.837       2.830       2.824       2.817       2.810       2.803       2.797       2.790    
        2.782       2.775       2.767       2.760       2.752       2.744       2.737       2.729       2.722       2.713    
        2.705       2.697       2.689       2.680       2.672       2.664       2.656       2.647       2.639       2.630    
        2.621       2.613       2.604       2.595       2.587       2.578       2.569       2.561       2.553       2.544    
        2.536       2.527       2.519       2.510       2.502       2.493       2.486       2.479       2.472       2.465    
        2.457       2.450       2.443       2.436       2.429       2.425       2.420       2.416       2.412       2.408    
        2.404       2.400       2.395       2.391       2.392       2.393       2.394       2.396       2.397       2.398    
        2.399       2.400       2.401       2.409       2.418       2.426       2.435       2.443       2.452       2.460    
        2.469       2.477       2.494       2.511       2.528       2.544       2.561       2.578       2.595       2.611    
        2.628       2.652       2.677       2.701       2.725       2.749       2.773       2.797       2.822       2.846    
        2.875       2.905       2.934       2.963       2.993       3.022       3.052       3.081       3.110       3.143    
        3.175       3.208       3.240       3.273       3.305       3.337       3.370       3.402       3.436       3.470    
        3.503       3.537       3.571       3.605       3.638       3.672       3.706       3.740       3.774       3.808    
        3.841       3.875       3.909       3.943       3.977       4.011       4.045       4.078       4.112       4.145    
        4.179       4.212       4.246       4.279       4.313       4.346       4.378       4.411       4.444       4.477    
        4.509       4.542       4.575       4.608    

 HEAD WILL BE SAVED ON UNIT   66 AT END OF TIME STEP   1, STRESS PERIOD    1
1
  VOLUMETRIC BUDGET FOR ENTIRE MODEL AT END OF TIME STEP  1 IN STRESS PERIOD   1
  ------------------------------------------------------------------------------

     CUMULATIVE VOLUMES      L**3       RATES FOR THIS TIME STEP      L**3/T
     ------------------                 ------------------------

           IN:                                      IN:
           ---                                      ---
             STORAGE =           0.0000               STORAGE =           0.0000
       CONSTANT HEAD =       5.5000E-03         CONSTANT HEAD =       5.5000E-03
               WELLS =           0.0000                 WELLS =           0.0000

            TOTAL IN =       5.5000E-03              TOTAL IN =       5.5000E-03

          OUT:                                     OUT:
          ----                                     ----
             STORAGE =           0.0000               STORAGE =           0.0000
       CONSTANT HEAD =           0.0000         CONSTANT HEAD =           0.0000
               WELLS =       5.5000E-03                 WELLS =       5.5000E-03

           TOTAL OUT =       5.5000E-03             TOTAL OUT =       5.5000E-03

            IN - OUT =           0.0000              IN - OUT =           0.0000

 PERCENT DISCREPANCY =           0.00     PERCENT DISCREPANCY =           0.00






          TIME SUMMARY AT END OF TIME STEP   1 IN STRESS PERIOD    1
                          TIME STEP LENGTH =    1.00000    
                        STRESS PERIOD TIME =    1.00000    
                     TOTAL SIMULATION TIME =    1.00000    
1
1
  FLUX ACROSS PARENT-CHILD INTERFACE AT TIME STEP  1 IN STRESS PERIOD    1
  ------------------------------------------------------------------------

     CUMULATIVE VOLUMES      L**3       RATES FOR THIS TIME STEP      L**3/T
     ------------------                 ------------------------

   TOTAL IN TO CHILD =       5.5000E-03     TOTAL IN TO CHILD =       5.5000E-03

 TOTAL OUT TO PARENT =           0.0000   TOTAL OUT TO PARENT =           0.0000


 Run end date and time (yyyy/mm/dd hh:mm:ss): 2007/08/03 11:11:14
 Elapsed run time:  5.796 Seconds

