                                  MODFLOW-LGR      
      U.S. GEOLOGICAL SURVEY MODULAR FINITE-DIFFERENCE GROUND-WATER FLOW MODEL
                            VERSION 1.1.1 04/15/2008

 LIST FILE: parent.lst
                         UNIT   16

 OPENING PARENT.ba6
 FILE TYPE:BAS6   UNIT   15   STATUS:OLD    
 FORMAT:FORMATTED              ACCESS:SEQUENTIAL          

 OPENING PARENTh.lpf
 FILE TYPE:LPF   UNIT   17   STATUS:OLD    
 FORMAT:FORMATTED              ACCESS:SEQUENTIAL          

 OPENING PARENT.ghb
 FILE TYPE:GHB   UNIT   19   STATUS:OLD    
 FORMAT:FORMATTED              ACCESS:SEQUENTIAL          

 OPENING PARENT.WEL
 FILE TYPE:WEL   UNIT   12   STATUS:OLD    
 FORMAT:FORMATTED              ACCESS:SEQUENTIAL          

 OPENING PARENT.gmg
 FILE TYPE:GMG   UNIT   13   STATUS:OLD    
 FORMAT:FORMATTED              ACCESS:SEQUENTIAL          
#PCG 13 parent.pcg                                                                                                                                                                                                                                                                                          
#DE4 13 PARENT.DE4                                                                                                                                                                                                                                                                                          

 OPENING PARENT.OC
 FILE TYPE:OC   UNIT   14   STATUS:OLD    
 FORMAT:FORMATTED              ACCESS:SEQUENTIAL          

 OPENING pbflux
 FILE TYPE:DATA   UNIT   71   STATUS:UNKNOWN
 FORMAT:FORMATTED              ACCESS:SEQUENTIAL          

 OPENING pbhead_chk
 FILE TYPE:DATA   UNIT   70   STATUS:UNKNOWN
 FORMAT:FORMATTED              ACCESS:SEQUENTIAL          

 OPENING hedp
 FILE TYPE:DATA(BINARY)   UNIT   76   STATUS:UNKNOWN
 FORMAT:BINARY                 ACCESS:SEQUENTIAL          

 OPENING flowp
 FILE TYPE:DATA(BINARY)   UNIT   77   STATUS:UNKNOWN
 FORMAT:BINARY                 ACCESS:SEQUENTIAL          

 OPENING PARENT.dis
 FILE TYPE:DIS   UNIT   10   STATUS:OLD    
 FORMAT:FORMATTED              ACCESS:SEQUENTIAL          

 OPENING PARENT.zon
 FILE TYPE:ZONE   UNIT   18   STATUS:OLD    
 FORMAT:FORMATTED              ACCESS:SEQUENTIAL          

 BAS -- BASIC PACKAGE, VERSION 7, 5/2/2005 INPUT READ FROM UNIT   15

 DISCRETIZATION INPUT DATA READ FROM UNIT   10
    1 LAYERS        50 ROWS       108 COLUMNS
    1 STRESS PERIOD(S) IN SIMULATION
 MODEL TIME UNIT IS SECONDS
 MODEL LENGTH UNIT IS UNDEFINED
  Confining bed flag for each layer:
   0

                     DELR =   9.25000    

                     DELC =   9.00000    

 TOP ELEVATION OF LAYER 1 =   1.00000    

   MODEL LAYER BOTTOM EL. =   0.00000     FOR LAYER   1


 STRESS PERIOD     LENGTH       TIME STEPS     MULTIPLIER FOR DELT    SS FLAG
 ----------------------------------------------------------------------------
        1         1.000000          1                    1.000         SS

 STEADY-STATE SIMULATION



 
 #Parent Grid:  Pumpinmg Doublet: homogeneous                                    
 #Steffen Mehl 03/22/2007--> MULTIPLE CHILDREN                                   
 THE FREE FORMAT OPTION HAS BEEN SELECTED
 CALCULATE FLOW BETWEEN ADJACENT CONSTANT-HEAD CELLS

           BOUNDARY ARRAY =              1 FOR LAYER   1

 AQUIFER HEAD WILL BE SET TO -999.00     AT ALL NO-FLOW NODES (IBOUND=0).

             INITIAL HEAD =   5.50000     FOR LAYER   1

 OUTPUT CONTROL IS SPECIFIED ONLY AT TIME STEPS FOR WHICH OUTPUT IS DESIRED
 HEAD PRINT FORMAT CODE IS   0    DRAWDOWN PRINT FORMAT CODE IS   0
 HEADS WILL BE SAVED ON UNIT   76    DRAWDOWNS WILL BE SAVED ON UNIT    0

 ZONE OPTION, INPUT READ FROM UNIT   18
 # this is the zone array for the parent grid.  Garcia heterogeneity
     2 ZONE ARRAYS



             ZONE ARRAY: pzone     
 READING ON UNIT   18 WITH FORMAT: (50I5)              



             ZONE ARRAY: rchp      
 READING ON UNIT   18 WITH FORMAT: (108I3)             

 LGR -- LOCAL GRID REFINEMENT, VERSION 1.1, 11/10/2006
        INPUT READ FOR MODEL  1 DEFINED BY NAME FILE PARENT.nam

 LOCAL GRID REFINEMENT IS ACTIVE FOR PARENT ONLY
               BOUNDARY HEADS WILL BE SAVED ON UNIT  70
               BOUNDARY FLUXES WILL BE SAVED ON UNIT  71

 LPF -- LAYER-PROPERTY FLOW PACKAGE, VERSION 7, 5/2/2005
         INPUT READ FROM UNIT   17
 # LPF file for parent grid.  Homogeneous
 CELL-BY-CELL FLOWS WILL BE SAVED ON UNIT   77
 HEAD AT CELLS THAT CONVERT TO DRY=   0.0000    
     5 Named Parameters     

   LAYER FLAGS:
 LAYER       LAYTYP        LAYAVG         CHANI        LAYVKA        LAYWET
 ---------------------------------------------------------------------------
    1             0             0     1.000E+00             0             0

   INTERPRETATION OF LAYER FLAGS:
                        INTERBLOCK     HORIZONTAL    DATA IN
         LAYER TYPE   TRANSMISSIVITY   ANISOTROPY   ARRAY VKA   WETTABILITY
 LAYER      (LAYTYP)      (LAYAVG)       (CHANI)      (LAYVKA)      (LAYWET)
 ---------------------------------------------------------------------------
    1      CONFINED      HARMONIC     1.000E+00    VERTICAL K  NON-WETTABLE

 WETTING CAPABILITY IS NOT ACTIVE IN ANY LAYER

 PARAMETERS DEFINED IN THE LPF PACKAGE

 PARAMETER NAME:T110         TYPE:HK     CLUSTERS:   1
 Parameter value from package file is:   5.00000E-04
                LAYER:   1    MULTIPLIER ARRAY: NONE    ZONE ARRAY: pzone
                ZONE VALUES:  110

 PARAMETER NAME:T70          TYPE:HK     CLUSTERS:   1
 Parameter value from package file is:   5.00000E-04
                LAYER:   1    MULTIPLIER ARRAY: NONE    ZONE ARRAY: pzone
                ZONE VALUES:   70

 PARAMETER NAME:T30          TYPE:HK     CLUSTERS:   1
 Parameter value from package file is:   5.00000E-04
                LAYER:   1    MULTIPLIER ARRAY: NONE    ZONE ARRAY: pzone
                ZONE VALUES:   30

 PARAMETER NAME:T16          TYPE:HK     CLUSTERS:   1
 Parameter value from package file is:   5.00000E-04
                LAYER:   1    MULTIPLIER ARRAY: NONE    ZONE ARRAY: pzone
                ZONE VALUES:   16

 PARAMETER NAME:T08          TYPE:HK     CLUSTERS:   1
 Parameter value from package file is:   5.00000E-04
                LAYER:   1    MULTIPLIER ARRAY: NONE    ZONE ARRAY: pzone
                ZONE VALUES:    8

    HYD. COND. ALONG ROWS FOR LAYER   1 WILL BE DEFINED BY PARAMETERS
 (PRINT FLAG= -20)

    HYD. COND. ALONG ROWS is defined by the following parameters:
 T110      
 T70       
 T30       
 T16       
 T08       

    HYD. COND. ALONG ROWS =  5.000000E-04 FOR LAYER   1

      VERTICAL HYD. COND. =   1.00000     FOR LAYER   1

 WEL -- WELL PACKAGE, VERSION 7, 5/2/2005 INPUT READ FROM UNIT   12
 No named parameters
 MAXIMUM OF      2 ACTIVE WELLS AT ONE TIME


     0 Well parameters

 GHB -- GENERAL-HEAD BOUNDARY PACKAGE, VERSION 7, 5/2/2005
         INPUT READ FROM UNIT   19
 No named parameters
 MAXIMUM OF    100 ACTIVE GHB CELLS AT ONE TIME
 CELL-BY-CELL FLOWS WILL BE SAVED ON UNIT   77


     0 GHB parameters
 #==============================
 # RCLOSE  IITER HCLOSE  MXITER
 #==============================
 #==============================
 # DAMP  IADAMP  IOUTGMG
 #==============================
 #==============================
 # ISM  ISC
 #==============================
 -------------------------------------------------
 GMG -- PCG GEOMETRIC MULTI-GRID SOLUTION PACKAGE:
 -------------------------------------------------
 RCLOSE  = 1.00E-10; INNER CONVERGENCE CRITERION
 IITER   =      100; MAX INNER ITERATIONS            
 HCLOSE  = 1.00E-10; OUTER CONVERGENCE CRITERION
 MXIITER =      100; MAX OUTER ITERATIONS            
 DAMP    = 1.00E+00; DAMPING PARAMETER          
 IADAMP  =        0; ADAPTIVE DAMPING FLAG           
 IOUTGMG =        2; OUTPUT CONTROL FLAG             
 ISM     =        0; SMOOTHER FLAG                   
 ISC     =        0; COARSENING FLAG                 
 RELAX   = 0.00E+00; RELAXATION PARAMETER       
 -------------------------------------------------
 ILU SMOOTHING IMPLEMENTED
 FULL COARSENING
 -------------------------------------------------
    0 MEGABYTES OF MEMORY ALLOCATED BY GMG
 -------------------------------------------------

1
                            STRESS PERIOD NO.    1, LENGTH =   1.000000    
                            -----------------------------------------------

                              NUMBER OF TIME STEPS =     1

                               MULTIPLIER FOR DELT =     1.000

                            INITIAL TIME STEP SIZE =   1.000000    

 WELL NO.  LAYER   ROW   COL   STRESS RATE         
 --------------------------------------------------
      1      1     26     30     -0.5500E-02
      2      1     26     79     -0.5500E-02

      2 WELLS

 BOUND. NO. LAYER   ROW   COL     STAGE      CONDUCTANCE         
 ----------------------------------------------------------------
      1      1      1      1       10.00          0.9730E-03
      2      1      2      1       10.00          0.9730E-03
      3      1      3      1       10.00          0.9730E-03
      4      1      4      1       10.00          0.9730E-03
      5      1      5      1       10.00          0.9730E-03
      6      1      6      1       10.00          0.9730E-03
      7      1      7      1       10.00          0.9730E-03
      8      1      8      1       10.00          0.9730E-03
      9      1      9      1       10.00          0.9730E-03
     10      1     10      1       10.00          0.9730E-03
     11      1     11      1       10.00          0.9730E-03
     12      1     12      1       10.00          0.9730E-03
     13      1     13      1       10.00          0.9730E-03
     14      1     14      1       10.00          0.9730E-03
     15      1     15      1       10.00          0.9730E-03
     16      1     16      1       10.00          0.9730E-03
     17      1     17      1       10.00          0.9730E-03
     18      1     18      1       10.00          0.9730E-03
     19      1     19      1       10.00          0.9730E-03
     20      1     20      1       10.00          0.9730E-03
     21      1     21      1       10.00          0.9730E-03
     22      1     22      1       10.00          0.9730E-03
     23      1     23      1       10.00          0.9730E-03
     24      1     24      1       10.00          0.9730E-03
     25      1     25      1       10.00          0.9730E-03
     26      1     26      1       10.00          0.9730E-03
     27      1     27      1       10.00          0.9730E-03
     28      1     28      1       10.00          0.9730E-03
     29      1     29      1       10.00          0.9730E-03
     30      1     30      1       10.00          0.9730E-03
     31      1     31      1       10.00          0.9730E-03
     32      1     32      1       10.00          0.9730E-03
     33      1     33      1       10.00          0.9730E-03
     34      1     34      1       10.00          0.9730E-03
     35      1     35      1       10.00          0.9730E-03
     36      1     36      1       10.00          0.9730E-03
     37      1     37      1       10.00          0.9730E-03
     38      1     38      1       10.00          0.9730E-03
     39      1     39      1       10.00          0.9730E-03
     40      1     40      1       10.00          0.9730E-03
     41      1     41      1       10.00          0.9730E-03
     42      1     42      1       10.00          0.9730E-03
     43      1     43      1       10.00          0.9730E-03
     44      1     44      1       10.00          0.9730E-03
     45      1     45      1       10.00          0.9730E-03
     46      1     46      1       10.00          0.9730E-03
     47      1     47      1       10.00          0.9730E-03
     48      1     48      1       10.00          0.9730E-03
     49      1     49      1       10.00          0.9730E-03
     50      1     50      1       10.00          0.9730E-03
     51      1      1    108       10.00          0.9730E-03
     52      1      2    108       10.00          0.9730E-03
     53      1      3    108       10.00          0.9730E-03
     54      1      4    108       10.00          0.9730E-03
     55      1      5    108       10.00          0.9730E-03
     56      1      6    108       10.00          0.9730E-03
     57      1      7    108       10.00          0.9730E-03
     58      1      8    108       10.00          0.9730E-03
     59      1      9    108       10.00          0.9730E-03
     60      1     10    108       10.00          0.9730E-03
     61      1     11    108       10.00          0.9730E-03
     62      1     12    108       10.00          0.9730E-03
     63      1     13    108       10.00          0.9730E-03
     64      1     14    108       10.00          0.9730E-03
     65      1     15    108       10.00          0.9730E-03
     66      1     16    108       10.00          0.9730E-03
     67      1     17    108       10.00          0.9730E-03
     68      1     18    108       10.00          0.9730E-03
     69      1     19    108       10.00          0.9730E-03
     70      1     20    108       10.00          0.9730E-03
     71      1     21    108       10.00          0.9730E-03
     72      1     22    108       10.00          0.9730E-03
     73      1     23    108       10.00          0.9730E-03
     74      1     24    108       10.00          0.9730E-03
     75      1     25    108       10.00          0.9730E-03
     76      1     26    108       10.00          0.9730E-03
     77      1     27    108       10.00          0.9730E-03
     78      1     28    108       10.00          0.9730E-03
     79      1     29    108       10.00          0.9730E-03
     80      1     30    108       10.00          0.9730E-03
     81      1     31    108       10.00          0.9730E-03
     82      1     32    108       10.00          0.9730E-03
     83      1     33    108       10.00          0.9730E-03
     84      1     34    108       10.00          0.9730E-03
     85      1     35    108       10.00          0.9730E-03
     86      1     36    108       10.00          0.9730E-03
     87      1     37    108       10.00          0.9730E-03
     88      1     38    108       10.00          0.9730E-03
     89      1     39    108       10.00          0.9730E-03
     90      1     40    108       10.00          0.9730E-03
     91      1     41    108       10.00          0.9730E-03
     92      1     42    108       10.00          0.9730E-03
     93      1     43    108       10.00          0.9730E-03
     94      1     44    108       10.00          0.9730E-03
     95      1     45    108       10.00          0.9730E-03
     96      1     46    108       10.00          0.9730E-03
     97      1     47    108       10.00          0.9730E-03
     98      1     48    108       10.00          0.9730E-03
     99      1     49    108       10.00          0.9730E-03
    100      1     50    108       10.00          0.9730E-03

    100 GHB CELLS
 
 SOLVING FOR HEAD 
 ITER:   0  RES: 4.4469E-02  CFAC: 1.000
 ITER:   1  RES: 8.4078E-06  CFAC: 0.000
 ITER:   2  RES: 7.7471E-09  CFAC: 0.001
 ITER:   3  RES: 3.1399E-12  CFAC: 0.000
 ---------------------------------------------------------
 PCG ITERATIONS                    :    3
 DAMPING                           : 1.000
 L2-NORM OF RESIDUAL               : 3.1399E-12
 MAX HEAD CHANGE                   : 8.6114E+00
 MAX HEAD CHANGE AT (COL,ROW,LAY)  : (    30,    26,     1)
 ---------------------------------------------------------

 ITER:   0  RES: 3.1399E-12  CFAC: 1.000
 ITER:   1  RES: 1.6586E-15  CFAC: 0.001
 ---------------------------------------------------------
 PCG ITERATIONS                    :    1
 DAMPING                           : 1.000
 L2-NORM OF RESIDUAL               : 1.6586E-15
 MAX HEAD CHANGE                   : 1.2080E-09
 MAX HEAD CHANGE AT (COL,ROW,LAY)  : (    58,     1,     1)
 ---------------------------------------------------------

 ITER:   0  RES: 1.6590E-15  CFAC: 1.000
 ITER:   1  RES: 1.4417E-18  CFAC: 0.001
 ---------------------------------------------------------
 PCG ITERATIONS                    :    1
 DAMPING                           : 1.000
 L2-NORM OF RESIDUAL               : 1.4417E-18
 MAX HEAD CHANGE                   : 1.1352E-12
 MAX HEAD CHANGE AT (COL,ROW,LAY)  : (    61,     3,     1)
 ---------------------------------------------------------

 -------------------------------
 TIME STEP            :      1
 STRESS PERIOD        :      1
 GMG CALLS            :      3
 PCG ITERATIONS       :      5
 -------------------------------
 TOTAL PCG ITERATIONS :      5
 -------------------------------

 ITER:   0  RES: 1.6905E-05  CFAC: 1.000
 ITER:   1  RES: 2.3154E-09  CFAC: 0.000
 ITER:   2  RES: 9.6014E-13  CFAC: 0.000
 ---------------------------------------------------------
 PCG ITERATIONS                    :    2
 DAMPING                           : 1.000
 L2-NORM OF RESIDUAL               : 9.6014E-13
 MAX HEAD CHANGE                   : 1.5841E-02
 MAX HEAD CHANGE AT (COL,ROW,LAY)  : (    79,    31,     1)
 ---------------------------------------------------------

 ITER:   0  RES: 9.6014E-13  CFAC: 1.000
 ITER:   1  RES: 4.9881E-16  CFAC: 0.001
 ---------------------------------------------------------
 PCG ITERATIONS                    :    1
 DAMPING                           : 1.000
 L2-NORM OF RESIDUAL               : 4.9881E-16
 MAX HEAD CHANGE                   : 4.4786E-10
 MAX HEAD CHANGE AT (COL,ROW,LAY)  : (    85,    18,     1)
 ---------------------------------------------------------

 ITER:   0  RES: 5.1014E-16  CFAC: 1.000
 ITER:   1  RES: 3.9600E-19  CFAC: 0.001
 ---------------------------------------------------------
 PCG ITERATIONS                    :    1
 DAMPING                           : 1.000
 L2-NORM OF RESIDUAL               : 3.9600E-19
 MAX HEAD CHANGE                   : 2.9846E-13
 MAX HEAD CHANGE AT (COL,ROW,LAY)  : (    80,    18,     1)
 ---------------------------------------------------------

 -------------------------------
 TIME STEP            :      1
 STRESS PERIOD        :      1
 GMG CALLS            :      3
 PCG ITERATIONS       :      4
 -------------------------------
 TOTAL PCG ITERATIONS :      9
 -------------------------------

 ITER:   0  RES: 3.8116E-06  CFAC: 1.000
 ITER:   1  RES: 7.1969E-10  CFAC: 0.000
 ITER:   2  RES: 5.1019E-13  CFAC: 0.001
 ---------------------------------------------------------
 PCG ITERATIONS                    :    2
 DAMPING                           : 1.000
 L2-NORM OF RESIDUAL               : 5.1019E-13
 MAX HEAD CHANGE                   : 2.4964E-03
 MAX HEAD CHANGE AT (COL,ROW,LAY)  : (    26,    31,     1)
 ---------------------------------------------------------

 ITER:   0  RES: 5.1019E-13  CFAC: 1.000
 ITER:   1  RES: 2.6811E-16  CFAC: 0.001
 ---------------------------------------------------------
 PCG ITERATIONS                    :    1
 DAMPING                           : 1.000
 L2-NORM OF RESIDUAL               : 2.6811E-16
 MAX HEAD CHANGE                   : 3.7127E-10
 MAX HEAD CHANGE AT (COL,ROW,LAY)  : (    75,    48,     1)
 ---------------------------------------------------------

 ITER:   0  RES: 2.8989E-16  CFAC: 1.000
 ITER:   1  RES: 2.7478E-19  CFAC: 0.001
 ---------------------------------------------------------
 PCG ITERATIONS                    :    1
 DAMPING                           : 1.000
 L2-NORM OF RESIDUAL               : 2.7478E-19
 MAX HEAD CHANGE                   : 3.0261E-13
 MAX HEAD CHANGE AT (COL,ROW,LAY)  : (    79,    31,     1)
 ---------------------------------------------------------

 -------------------------------
 TIME STEP            :      1
 STRESS PERIOD        :      1
 GMG CALLS            :      3
 PCG ITERATIONS       :      4
 -------------------------------
 TOTAL PCG ITERATIONS :     13
 -------------------------------

 ITER:   0  RES: 2.8146E-06  CFAC: 1.000
 ITER:   1  RES: 4.0804E-10  CFAC: 0.000
 ITER:   2  RES: 1.9111E-13  CFAC: 0.000
 ---------------------------------------------------------
 PCG ITERATIONS                    :    2
 DAMPING                           : 1.000
 L2-NORM OF RESIDUAL               : 1.9111E-13
 MAX HEAD CHANGE                   : 2.3578E-03
 MAX HEAD CHANGE AT (COL,ROW,LAY)  : (    30,    31,     1)
 ---------------------------------------------------------

 ITER:   0  RES: 1.9111E-13  CFAC: 1.000
 ITER:   1  RES: 1.1719E-16  CFAC: 0.001
 ---------------------------------------------------------
 PCG ITERATIONS                    :    1
 DAMPING                           : 1.000
 L2-NORM OF RESIDUAL               : 1.1719E-16
 MAX HEAD CHANGE                   : 1.5499E-10
 MAX HEAD CHANGE AT (COL,ROW,LAY)  : (    69,    48,     1)
 ---------------------------------------------------------

 ITER:   0  RES: 1.6350E-16  CFAC: 1.000
 ITER:   1  RES: 1.3659E-19  CFAC: 0.001
 ---------------------------------------------------------
 PCG ITERATIONS                    :    1
 DAMPING                           : 1.000
 L2-NORM OF RESIDUAL               : 1.3659E-19
 MAX HEAD CHANGE                   : 1.0667E-13
 MAX HEAD CHANGE AT (COL,ROW,LAY)  : (    58,    48,     1)
 ---------------------------------------------------------

 -------------------------------
 TIME STEP            :      1
 STRESS PERIOD        :      1
 GMG CALLS            :      3
 PCG ITERATIONS       :      4
 -------------------------------
 TOTAL PCG ITERATIONS :     17
 -------------------------------

 ITER:   0  RES: 1.2507E-06  CFAC: 1.000
 ITER:   1  RES: 2.0322E-10  CFAC: 0.000
 ITER:   2  RES: 1.4053E-13  CFAC: 0.001
 ---------------------------------------------------------
 PCG ITERATIONS                    :    2
 DAMPING                           : 1.000
 L2-NORM OF RESIDUAL               : 1.4053E-13
 MAX HEAD CHANGE                   : 1.4759E-03
 MAX HEAD CHANGE AT (COL,ROW,LAY)  : (    30,    31,     1)
 ---------------------------------------------------------

 ITER:   0  RES: 1.4054E-13  CFAC: 1.000
 ITER:   1  RES: 7.5993E-17  CFAC: 0.001
 ---------------------------------------------------------
 PCG ITERATIONS                    :    1
 DAMPING                           : 1.000
 L2-NORM OF RESIDUAL               : 7.5993E-17
 MAX HEAD CHANGE                   : 8.2485E-11
 MAX HEAD CHANGE AT (COL,ROW,LAY)  : (    76,    45,     1)
 ---------------------------------------------------------

 -------------------------------
 TIME STEP            :      1
 STRESS PERIOD        :      1
 GMG CALLS            :      2
 PCG ITERATIONS       :      3
 -------------------------------
 TOTAL PCG ITERATIONS :     20
 -------------------------------

 ITER:   0  RES: 3.8746E-07  CFAC: 1.000
 ITER:   1  RES: 1.5224E-10  CFAC: 0.000
 ITER:   2  RES: 1.0970E-13  CFAC: 0.001
 ---------------------------------------------------------
 PCG ITERATIONS                    :    2
 DAMPING                           : 1.000
 L2-NORM OF RESIDUAL               : 1.0970E-13
 MAX HEAD CHANGE                   : 5.5985E-04
 MAX HEAD CHANGE AT (COL,ROW,LAY)  : (    79,    31,     1)
 ---------------------------------------------------------

 ITER:   0  RES: 1.0971E-13  CFAC: 1.000
 ITER:   1  RES: 5.7451E-17  CFAC: 0.001
 ---------------------------------------------------------
 PCG ITERATIONS                    :    1
 DAMPING                           : 1.000
 L2-NORM OF RESIDUAL               : 5.7451E-17
 MAX HEAD CHANGE                   : 6.9581E-11
 MAX HEAD CHANGE AT (COL,ROW,LAY)  : (    74,    49,     1)
 ---------------------------------------------------------

 -------------------------------
 TIME STEP            :      1
 STRESS PERIOD        :      1
 GMG CALLS            :      2
 PCG ITERATIONS       :      3
 -------------------------------
 TOTAL PCG ITERATIONS :     23
 -------------------------------

 ITER:   0  RES: 1.5946E-07  CFAC: 1.000
 ITER:   1  RES: 4.8182E-11  CFAC: 0.000
 ---------------------------------------------------------
 PCG ITERATIONS                    :    1
 DAMPING                           : 1.000
 L2-NORM OF RESIDUAL               : 4.8182E-11
 MAX HEAD CHANGE                   : 1.4260E-04
 MAX HEAD CHANGE AT (COL,ROW,LAY)  : (    83,    31,     1)
 ---------------------------------------------------------

 ITER:   0  RES: 4.8182E-11  CFAC: 1.000
 ITER:   1  RES: 4.3051E-14  CFAC: 0.001
 ---------------------------------------------------------
 PCG ITERATIONS                    :    1
 DAMPING                           : 1.000
 L2-NORM OF RESIDUAL               : 4.3051E-14
 MAX HEAD CHANGE                   : 5.5156E-08
 MAX HEAD CHANGE AT (COL,ROW,LAY)  : (    79,    31,     1)
 ---------------------------------------------------------

 ITER:   0  RES: 4.3050E-14  CFAC: 1.000
 ITER:   1  RES: 3.1957E-17  CFAC: 0.001
 ---------------------------------------------------------
 PCG ITERATIONS                    :    1
 DAMPING                           : 1.000
 L2-NORM OF RESIDUAL               : 3.1957E-17
 MAX HEAD CHANGE                   : 3.3194E-11
 MAX HEAD CHANGE AT (COL,ROW,LAY)  : (    74,    31,     1)
 ---------------------------------------------------------

 -------------------------------
 TIME STEP            :      1
 STRESS PERIOD        :      1
 GMG CALLS            :      3
 PCG ITERATIONS       :      3
 -------------------------------
 TOTAL PCG ITERATIONS :     26
 -------------------------------

 ITER:   0  RES: 1.4175E-07  CFAC: 1.000
 ITER:   1  RES: 2.0382E-11  CFAC: 0.000
 ---------------------------------------------------------
 PCG ITERATIONS                    :    1
 DAMPING                           : 1.000
 L2-NORM OF RESIDUAL               : 2.0382E-11
 MAX HEAD CHANGE                   : 1.5179E-04
 MAX HEAD CHANGE AT (COL,ROW,LAY)  : (    30,    31,     1)
 ---------------------------------------------------------

 ITER:   0  RES: 2.0382E-11  CFAC: 1.000
 ITER:   1  RES: 1.5311E-14  CFAC: 0.001
 ---------------------------------------------------------
 PCG ITERATIONS                    :    1
 DAMPING                           : 1.000
 L2-NORM OF RESIDUAL               : 1.5311E-14
 MAX HEAD CHANGE                   : 2.0034E-08
 MAX HEAD CHANGE AT (COL,ROW,LAY)  : (    29,    33,     1)
 ---------------------------------------------------------

 ITER:   0  RES: 1.5313E-14  CFAC: 1.000
 ITER:   1  RES: 9.8418E-18  CFAC: 0.001
 ---------------------------------------------------------
 PCG ITERATIONS                    :    1
 DAMPING                           : 1.000
 L2-NORM OF RESIDUAL               : 9.8418E-18
 MAX HEAD CHANGE                   : 7.3250E-12
 MAX HEAD CHANGE AT (COL,ROW,LAY)  : (    55,     3,     1)
 ---------------------------------------------------------

 -------------------------------
 TIME STEP            :      1
 STRESS PERIOD        :      1
 GMG CALLS            :      3
 PCG ITERATIONS       :      3
 -------------------------------
 TOTAL PCG ITERATIONS :     29
 -------------------------------

 ITER:   0  RES: 9.0256E-08  CFAC: 1.000
 ITER:   1  RES: 2.2078E-11  CFAC: 0.000
 ---------------------------------------------------------
 PCG ITERATIONS                    :    1
 DAMPING                           : 1.000
 L2-NORM OF RESIDUAL               : 2.2078E-11
 MAX HEAD CHANGE                   : 1.1781E-04
 MAX HEAD CHANGE AT (COL,ROW,LAY)  : (    30,    31,     1)
 ---------------------------------------------------------

 ITER:   0  RES: 2.2078E-11  CFAC: 1.000
 ITER:   1  RES: 1.8842E-14  CFAC: 0.001
 ---------------------------------------------------------
 PCG ITERATIONS                    :    1
 DAMPING                           : 1.000
 L2-NORM OF RESIDUAL               : 1.8842E-14
 MAX HEAD CHANGE                   : 2.3816E-08
 MAX HEAD CHANGE AT (COL,ROW,LAY)  : (    76,    31,     1)
 ---------------------------------------------------------

 ITER:   0  RES: 1.8843E-14  CFAC: 1.000
 ITER:   1  RES: 1.2910E-17  CFAC: 0.001
 ---------------------------------------------------------
 PCG ITERATIONS                    :    1
 DAMPING                           : 1.000
 L2-NORM OF RESIDUAL               : 1.2910E-17
 MAX HEAD CHANGE                   : 1.3763E-11
 MAX HEAD CHANGE AT (COL,ROW,LAY)  : (    79,    31,     1)
 ---------------------------------------------------------

 -------------------------------
 TIME STEP            :      1
 STRESS PERIOD        :      1
 GMG CALLS            :      3
 PCG ITERATIONS       :      3
 -------------------------------
 TOTAL PCG ITERATIONS :     32
 -------------------------------

 ITER:   0  RES: 3.5985E-08  CFAC: 1.000
 ITER:   1  RES: 9.7747E-12  CFAC: 0.000
 ---------------------------------------------------------
 PCG ITERATIONS                    :    1
 DAMPING                           : 1.000
 L2-NORM OF RESIDUAL               : 9.7747E-12
 MAX HEAD CHANGE                   : 4.6508E-05
 MAX HEAD CHANGE AT (COL,ROW,LAY)  : (    79,    31,     1)
 ---------------------------------------------------------

 ITER:   0  RES: 9.7747E-12  CFAC: 1.000
 ITER:   1  RES: 8.3296E-15  CFAC: 0.001
 ---------------------------------------------------------
 PCG ITERATIONS                    :    1
 DAMPING                           : 1.000
 L2-NORM OF RESIDUAL               : 8.3296E-15
 MAX HEAD CHANGE                   : 9.2436E-09
 MAX HEAD CHANGE AT (COL,ROW,LAY)  : (    76,    31,     1)
 ---------------------------------------------------------

 ITER:   0  RES: 8.3294E-15  CFAC: 1.000
 ITER:   1  RES: 5.9845E-18  CFAC: 0.001
 ---------------------------------------------------------
 PCG ITERATIONS                    :    1
 DAMPING                           : 1.000
 L2-NORM OF RESIDUAL               : 5.9845E-18
 MAX HEAD CHANGE                   : 6.8681E-12
 MAX HEAD CHANGE AT (COL,ROW,LAY)  : (    79,    31,     1)
 ---------------------------------------------------------

 -------------------------------
 TIME STEP            :      1
 STRESS PERIOD        :      1
 GMG CALLS            :      3
 PCG ITERATIONS       :      3
 -------------------------------
 TOTAL PCG ITERATIONS :     35
 -------------------------------

 ITER:   0  RES: 7.1798E-09  CFAC: 1.000
 ITER:   1  RES: 1.7385E-12  CFAC: 0.000
 ---------------------------------------------------------
 PCG ITERATIONS                    :    1
 DAMPING                           : 1.000
 L2-NORM OF RESIDUAL               : 1.7385E-12
 MAX HEAD CHANGE                   : 6.5072E-06
 MAX HEAD CHANGE AT (COL,ROW,LAY)  : (    30,    20,     1)
 ---------------------------------------------------------

 ITER:   0  RES: 1.7385E-12  CFAC: 1.000
 ITER:   1  RES: 1.4730E-15  CFAC: 0.001
 ---------------------------------------------------------
 PCG ITERATIONS                    :    1
 DAMPING                           : 1.000
 L2-NORM OF RESIDUAL               : 1.4730E-15
 MAX HEAD CHANGE                   : 2.1199E-09
 MAX HEAD CHANGE AT (COL,ROW,LAY)  : (    31,    18,     1)
 ---------------------------------------------------------

 ITER:   0  RES: 1.4761E-15  CFAC: 1.000
 ITER:   1  RES: 1.0267E-18  CFAC: 0.001
 ---------------------------------------------------------
 PCG ITERATIONS                    :    1
 DAMPING                           : 1.000
 L2-NORM OF RESIDUAL               : 1.0267E-18
 MAX HEAD CHANGE                   : 8.1176E-13
 MAX HEAD CHANGE AT (COL,ROW,LAY)  : (    35,     2,     1)
 ---------------------------------------------------------

 -------------------------------
 TIME STEP            :      1
 STRESS PERIOD        :      1
 GMG CALLS            :      3
 PCG ITERATIONS       :      3
 -------------------------------
 TOTAL PCG ITERATIONS :     38
 -------------------------------

 ITER:   0  RES: 7.0266E-09  CFAC: 1.000
 ITER:   1  RES: 1.9789E-12  CFAC: 0.000
 ---------------------------------------------------------
 PCG ITERATIONS                    :    1
 DAMPING                           : 1.000
 L2-NORM OF RESIDUAL               : 1.9789E-12
 MAX HEAD CHANGE                   : 7.4362E-06
 MAX HEAD CHANGE AT (COL,ROW,LAY)  : (    30,    31,     1)
 ---------------------------------------------------------

 ITER:   0  RES: 1.9789E-12  CFAC: 1.000
 ITER:   1  RES: 1.6774E-15  CFAC: 0.001
 ---------------------------------------------------------
 PCG ITERATIONS                    :    1
 DAMPING                           : 1.000
 L2-NORM OF RESIDUAL               : 1.6774E-15
 MAX HEAD CHANGE                   : 1.9405E-09
 MAX HEAD CHANGE AT (COL,ROW,LAY)  : (    76,    31,     1)
 ---------------------------------------------------------

 ITER:   0  RES: 1.6795E-15  CFAC: 1.000
 ITER:   1  RES: 1.1292E-18  CFAC: 0.001
 ---------------------------------------------------------
 PCG ITERATIONS                    :    1
 DAMPING                           : 1.000
 L2-NORM OF RESIDUAL               : 1.1292E-18
 MAX HEAD CHANGE                   : 9.8006E-13
 MAX HEAD CHANGE AT (COL,ROW,LAY)  : (    79,    31,     1)
 ---------------------------------------------------------

 -------------------------------
 TIME STEP            :      1
 STRESS PERIOD        :      1
 GMG CALLS            :      3
 PCG ITERATIONS       :      3
 -------------------------------
 TOTAL PCG ITERATIONS :     41
 -------------------------------


 OUTPUT CONTROL FOR STRESS PERIOD    1   TIME STEP   1
    PRINT HEAD FOR ALL LAYERS
    SAVE HEAD FOR ALL LAYERS
    PRINT BUDGET
    SAVE BUDGET
 UBUDSV SAVING "   CONSTANT HEAD" ON UNIT 77 AT TIME STEP  1, STRESS PERIOD    1
 UBUDSV SAVING "FLOW RIGHT FACE " ON UNIT 77 AT TIME STEP  1, STRESS PERIOD    1
 UBUDSV SAVING "FLOW FRONT FACE " ON UNIT 77 AT TIME STEP  1, STRESS PERIOD    1
 UBUDSV SAVING " HEAD DEP BOUNDS" ON UNIT 77 AT TIME STEP  1, STRESS PERIOD    1
1
              HEAD IN LAYER   1 AT END OF TIME STEP   1 IN STRESS PERIOD    1
  ---------------------------------------------------------------------------

            1           2           3           4           5           6           7           8           9          10
           11          12          13          14          15          16          17          18          19          20
           21          22          23          24          25          26          27          28          29          30
           31          32          33          34          35          36          37          38          39          40
           41          42          43          44          45          46          47          48          49          50
           51          52          53          54          55          56          57          58          59          60
           61          62          63          64          65          66          67          68          69          70
           71          72          73          74          75          76          77          78          79          80
           81          82          83          84          85          86          87          88          89          90
           91          92          93          94          95          96          97          98          99         100
          101         102         103         104         105         106         107         108
 ........................................................................................................................
   1    9.893       9.679       9.465       9.251       9.038       8.826       8.615       8.405       8.196       7.988    
        7.783       7.579       7.377       7.179       6.982       6.789       6.600       6.414       6.232       6.055    
        5.883       5.716       5.554       5.398       5.248       5.105       4.968       4.839       4.716       4.600    
        4.492       4.390       4.296       4.209       4.128       4.054       3.986       3.924       3.868       3.817    
        3.772       3.731       3.694       3.662       3.633       3.609       3.587       3.569       3.554       3.541    
        3.531       3.524       3.519       3.517       3.517       3.519       3.524       3.531       3.541       3.554    
        3.569       3.587       3.609       3.633       3.662       3.694       3.731       3.772       3.817       3.868    
        3.924       3.986       4.054       4.128       4.209       4.296       4.390       4.492       4.600       4.716    
        4.839       4.968       5.105       5.248       5.398       5.554       5.716       5.883       6.055       6.232    
        6.414       6.600       6.789       6.982       7.179       7.377       7.579       7.783       7.988       8.196    
        8.405       8.615       8.826       9.038       9.251       9.465       9.679       9.893    
   2    9.893       9.678       9.464       9.251       9.038       8.825       8.614       8.403       8.194       7.987    
        7.781       7.577       7.375       7.176       6.979       6.786       6.596       6.410       6.228       6.051    
        5.878       5.710       5.548       5.392       5.242       5.099       4.962       4.832       4.709       4.594    
        4.485       4.384       4.290       4.202       4.122       4.048       3.980       3.919       3.863       3.812    
        3.767       3.726       3.690       3.658       3.630       3.606       3.584       3.566       3.551       3.539    
        3.529       3.522       3.517       3.515       3.515       3.517       3.522       3.529       3.539       3.551    
        3.566       3.584       3.606       3.630       3.658       3.690       3.726       3.767       3.812       3.863    
        3.919       3.980       4.048       4.122       4.202       4.290       4.384       4.485       4.594       4.709    
        4.832       4.962       5.099       5.242       5.392       5.548       5.710       5.878       6.051       6.228    
        6.410       6.596       6.786       6.979       7.176       7.375       7.577       7.781       7.987       8.194    
        8.403       8.614       8.825       9.038       9.251       9.464       9.678       9.893    
   3    9.893       9.678       9.464       9.250       9.036       8.823       8.612       8.401       8.191       7.983    
        7.777       7.573       7.370       7.171       6.974       6.780       6.589       6.402       6.220       6.042    
        5.868       5.700       5.537       5.381       5.230       5.086       4.949       4.819       4.696       4.580    
        4.472       4.370       4.276       4.189       4.109       4.036       3.969       3.908       3.853       3.803    
        3.758       3.718       3.682       3.651       3.623       3.599       3.578       3.561       3.546       3.534    
        3.524       3.517       3.512       3.510       3.510       3.512       3.517       3.524       3.534       3.546    
        3.561       3.578       3.599       3.623       3.651       3.682       3.718       3.758       3.803       3.853    
        3.908       3.969       4.036       4.109       4.189       4.276       4.370       4.472       4.580       4.696    
        4.819       4.949       5.086       5.230       5.381       5.537       5.700       5.868       6.042       6.220    
        6.402       6.589       6.780       6.974       7.171       7.370       7.573       7.777       7.983       8.191    
        8.401       8.612       8.823       9.036       9.250       9.464       9.678       9.893    
   4    9.892       9.677       9.463       9.248       9.034       8.821       8.609       8.397       8.187       7.978    
        7.771       7.566       7.363       7.163       6.965       6.770       6.579       6.391       6.207       6.028    
        5.853       5.684       5.521       5.363       5.212       5.067       4.929       4.799       4.675       4.560    
        4.451       4.350       4.257       4.170       4.091       4.018       3.952       3.892       3.837       3.788    
        3.745       3.705       3.671       3.640       3.613       3.590       3.569       3.552       3.538       3.526    
        3.517       3.510       3.506       3.504       3.504       3.506       3.510       3.517       3.526       3.538    
        3.552       3.569       3.590       3.613       3.640       3.671       3.705       3.745       3.788       3.837    
        3.892       3.952       4.018       4.091       4.170       4.257       4.350       4.451       4.560       4.675    
        4.799       4.929       5.067       5.212       5.363       5.521       5.684       5.853       6.028       6.207    
        6.391       6.579       6.770       6.965       7.163       7.363       7.566       7.771       7.978       8.187    
        8.397       8.609       8.821       9.034       9.248       9.463       9.677       9.892    
   5    9.892       9.677       9.461       9.246       9.031       8.818       8.604       8.392       8.181       7.972    
        7.764       7.558       7.354       7.152       6.953       6.757       6.564       6.375       6.190       6.010    
        5.834       5.663       5.498       5.339       5.187       5.041       4.903       4.772       4.648       4.532    
        4.424       4.323       4.230       4.144       4.066       3.994       3.929       3.870       3.817       3.769    
        3.727       3.689       3.655       3.625       3.600       3.577       3.558       3.541       3.528       3.516    
        3.508       3.501       3.497       3.495       3.495       3.497       3.501       3.508       3.516       3.528    
        3.541       3.558       3.577       3.600       3.625       3.655       3.689       3.727       3.769       3.817    
        3.870       3.929       3.994       4.066       4.144       4.230       4.323       4.424       4.532       4.648    
        4.772       4.903       5.041       5.187       5.339       5.498       5.663       5.834       6.010       6.190    
        6.375       6.564       6.757       6.953       7.152       7.354       7.558       7.764       7.972       8.181    
        8.392       8.604       8.818       9.031       9.246       9.461       9.677       9.892    
   6    9.892       9.675       9.459       9.243       9.028       8.813       8.599       8.386       8.175       7.964    
        7.755       7.548       7.342       7.139       6.939       6.741       6.547       6.356       6.169       5.987    
        5.809       5.637       5.470       5.310       5.156       5.009       4.870       4.738       4.613       4.497    
        4.389       4.289       4.196       4.111       4.034       3.964       3.900       3.843       3.791       3.745    
        3.704       3.668       3.636       3.607       3.583       3.562       3.543       3.528       3.515       3.504    
        3.496       3.490       3.486       3.484       3.484       3.486       3.490       3.496       3.504       3.515    
        3.528       3.543       3.562       3.583       3.607       3.636       3.668       3.704       3.745       3.791    
        3.843       3.900       3.964       4.034       4.111       4.196       4.289       4.389       4.497       4.613    
        4.738       4.870       5.009       5.156       5.310       5.470       5.637       5.809       5.987       6.169    
        6.356       6.547       6.741       6.939       7.139       7.342       7.548       7.755       7.964       8.175    
        8.386       8.599       8.813       9.028       9.243       9.459       9.675       9.892    
   7    9.891       9.674       9.457       9.240       9.024       8.808       8.594       8.379       8.166       7.955    
        7.744       7.535       7.328       7.124       6.922       6.722       6.526       6.333       6.144       5.959    
        5.779       5.605       5.436       5.274       5.118       4.970       4.829       4.696       4.571       4.455    
        4.347       4.247       4.155       4.072       3.996       3.927       3.865       3.810       3.760       3.716    
        3.677       3.643       3.613       3.586       3.563       3.543       3.526       3.512       3.500       3.490    
        3.482       3.477       3.473       3.471       3.471       3.473       3.477       3.482       3.490       3.500    
        3.512       3.526       3.543       3.563       3.586       3.613       3.643       3.677       3.716       3.760    
        3.810       3.865       3.927       3.996       4.072       4.155       4.247       4.347       4.455       4.571    
        4.696       4.829       4.970       5.118       5.274       5.436       5.605       5.779       5.959       6.144    
        6.333       6.526       6.722       6.922       7.124       7.328       7.535       7.744       7.955       8.166    
        8.379       8.594       8.808       9.024       9.240       9.457       9.674       9.891    
   8    9.891       9.673       9.455       9.237       9.020       8.803       8.587       8.371       8.157       7.944    
        7.732       7.521       7.313       7.106       6.902       6.700       6.501       6.306       6.114       5.927    
        5.745       5.568       5.397       5.232       5.074       4.923       4.781       4.647       4.521       4.404    
        4.297       4.197       4.107       4.025       3.951       3.884       3.825       3.771       3.724       3.683    
        3.646       3.614       3.586       3.561       3.540       3.522       3.506       3.493       3.483       3.474    
        3.467       3.462       3.458       3.457       3.457       3.458       3.462       3.467       3.474       3.483    
        3.493       3.506       3.522       3.540       3.561       3.586       3.614       3.646       3.683       3.724    
        3.771       3.825       3.884       3.951       4.025       4.107       4.197       4.297       4.404       4.521    
        4.647       4.781       4.923       5.074       5.232       5.397       5.568       5.745       5.927       6.114    
        6.306       6.501       6.700       6.902       7.106       7.313       7.521       7.732       7.944       8.157    
        8.371       8.587       8.803       9.020       9.237       9.455       9.673       9.891    
   9    9.890       9.671       9.452       9.233       9.015       8.797       8.579       8.363       8.147       7.932    
        7.718       7.506       7.295       7.086       6.879       6.675       6.474       6.276       6.081       5.891    
        5.705       5.525       5.351       5.183       5.022       4.870       4.725       4.589       4.463       4.346    
        4.238       4.140       4.051       3.970       3.898       3.834       3.778       3.727       3.683       3.645    
        3.611       3.581       3.556       3.534       3.515       3.498       3.485       3.473       3.463       3.456    
        3.450       3.445       3.442       3.441       3.441       3.442       3.445       3.450       3.456       3.463    
        3.473       3.485       3.498       3.515       3.534       3.556       3.581       3.611       3.645       3.683    
        3.727       3.778       3.834       3.898       3.970       4.051       4.140       4.238       4.346       4.463    
        4.589       4.725       4.870       5.022       5.183       5.351       5.525       5.705       5.891       6.081    
        6.276       6.474       6.675       6.879       7.086       7.295       7.506       7.718       7.932       8.147    
        8.363       8.579       8.797       9.015       9.233       9.452       9.671       9.890    
  10    9.890       9.669       9.449       9.229       9.009       8.790       8.571       8.353       8.135       7.919    
        7.703       7.489       7.276       7.064       6.855       6.648       6.443       6.242       6.044       5.850    
        5.660       5.476       5.299       5.127       4.963       4.808       4.661       4.523       4.396       4.278    
        4.171       4.073       3.986       3.908       3.839       3.778       3.724       3.678       3.637       3.602    
        3.571       3.545       3.522       3.503       3.486       3.472       3.461       3.451       3.442       3.436    
        3.431       3.427       3.425       3.423       3.423       3.425       3.427       3.431       3.436       3.442    
        3.451       3.461       3.472       3.486       3.503       3.522       3.545       3.571       3.602       3.637    
        3.678       3.724       3.778       3.839       3.908       3.986       4.073       4.171       4.278       4.396    
        4.523       4.661       4.808       4.963       5.127       5.299       5.476       5.660       5.850       6.044    
        6.242       6.443       6.648       6.855       7.064       7.276       7.489       7.703       7.919       8.135    
        8.353       8.571       8.790       9.009       9.229       9.449       9.669       9.890    
  11    9.889       9.668       9.446       9.225       9.004       8.783       8.562       8.342       8.123       7.905    
        7.687       7.470       7.254       7.040       6.828       6.618       6.410       6.204       6.002       5.804    
        5.611       5.422       5.240       5.065       4.897       4.738       4.588       4.448       4.319       4.201    
        4.094       3.998       3.912       3.837       3.771       3.714       3.665       3.622       3.586       3.554    
        3.528       3.505       3.486       3.470       3.456       3.444       3.435       3.427       3.420       3.415    
        3.411       3.408       3.406       3.405       3.405       3.406       3.408       3.411       3.415       3.420    
        3.427       3.435       3.444       3.456       3.470       3.486       3.505       3.528       3.554       3.586    
        3.622       3.665       3.714       3.771       3.837       3.912       3.998       4.094       4.201       4.319    
        4.448       4.588       4.738       4.897       5.065       5.240       5.422       5.611       5.804       6.002    
        6.204       6.410       6.618       6.828       7.040       7.254       7.470       7.687       7.905       8.123    
        8.342       8.562       8.783       9.004       9.225       9.446       9.668       9.889    
  12    9.889       9.666       9.443       9.220       8.998       8.775       8.553       8.332       8.110       7.890    
        7.670       7.450       7.232       7.015       6.799       6.585       6.373       6.164       5.957       5.755    
        5.556       5.363       5.175       4.995       4.822       4.659       4.505       4.363       4.232       4.113    
        4.006       3.912       3.829       3.757       3.696       3.643       3.598       3.561       3.529       3.503    
        3.481       3.462       3.447       3.434       3.423       3.414       3.407       3.401       3.396       3.393    
        3.390       3.388       3.386       3.386       3.386       3.386       3.388       3.390       3.393       3.396    
        3.401       3.407       3.414       3.423       3.434       3.447       3.462       3.481       3.503       3.529    
        3.561       3.598       3.643       3.696       3.757       3.829       3.912       4.006       4.113       4.232    
        4.363       4.505       4.659       4.822       4.995       5.175       5.363       5.556       5.755       5.957    
        6.164       6.373       6.585       6.799       7.015       7.232       7.450       7.670       7.890       8.110    
        8.332       8.553       8.775       8.998       9.220       9.443       9.666       9.889    
  13    9.888       9.664       9.439       9.215       8.991       8.767       8.544       8.320       8.097       7.874    
        7.652       7.430       7.209       6.988       6.769       6.551       6.335       6.121       5.909       5.701    
        5.497       5.297       5.104       4.917       4.739       4.570       4.412       4.266       4.133       4.013    
        3.908       3.815       3.736       3.668       3.612       3.564       3.526       3.494       3.468       3.447    
        3.430       3.416       3.405       3.396       3.389       3.383       3.378       3.375       3.372       3.370    
        3.368       3.367       3.366       3.365       3.365       3.366       3.367       3.368       3.370       3.372    
        3.375       3.378       3.383       3.389       3.396       3.405       3.416       3.430       3.447       3.468    
        3.494       3.526       3.564       3.612       3.668       3.736       3.815       3.908       4.013       4.133    
        4.266       4.412       4.570       4.739       4.917       5.104       5.297       5.497       5.701       5.909    
        6.121       6.335       6.551       6.769       6.988       7.209       7.430       7.652       7.874       8.097    
        8.320       8.544       8.767       8.991       9.215       9.439       9.664       9.888    
  14    9.887       9.662       9.436       9.211       8.985       8.759       8.534       8.309       8.083       7.858    
        7.633       7.409       7.184       6.960       6.737       6.515       6.294       6.075       5.858       5.643    
        5.433       5.226       5.025       4.832       4.646       4.471       4.308       4.157       4.022       3.901    
        3.796       3.706       3.631       3.569       3.518       3.478       3.446       3.421       3.402       3.387    
        3.376       3.368       3.361       3.357       3.353       3.351       3.349       3.348       3.347       3.346    
        3.346       3.345       3.345       3.345       3.345       3.345       3.345       3.346       3.346       3.347    
        3.348       3.349       3.351       3.353       3.357       3.361       3.368       3.376       3.387       3.402    
        3.421       3.446       3.478       3.518       3.569       3.631       3.706       3.796       3.901       4.022    
        4.157       4.308       4.471       4.646       4.832       5.025       5.226       5.433       5.643       5.858    
        6.075       6.294       6.515       6.737       6.960       7.184       7.409       7.633       7.858       8.083    
        8.309       8.534       8.759       8.985       9.211       9.436       9.662       9.887    
  15    9.887       9.660       9.433       9.206       8.979       8.751       8.524       8.297       8.070       7.842    
        7.615       7.387       7.159       6.932       6.705       6.478       6.252       6.027       5.804       5.583    
        5.364       5.150       4.941       4.738       4.545       4.361       4.191       4.035       3.896       3.774    
        3.670       3.583       3.513       3.458       3.416       3.383       3.360       3.343       3.332       3.324    
        3.320       3.317       3.316       3.316       3.317       3.318       3.319       3.320       3.321       3.322    
        3.323       3.324       3.324       3.325       3.325       3.324       3.324       3.323       3.322       3.321    
        3.320       3.319       3.318       3.317       3.316       3.316       3.317       3.320       3.324       3.332    
        3.343       3.360       3.383       3.416       3.458       3.513       3.583       3.670       3.774       3.896    
        4.035       4.191       4.361       4.545       4.738       4.941       5.150       5.364       5.583       5.804    
        6.027       6.252       6.478       6.705       6.932       7.159       7.387       7.615       7.842       8.070    
        8.297       8.524       8.751       8.979       9.206       9.433       9.660       9.887    
  16    9.886       9.658       9.429       9.201       8.972       8.743       8.515       8.285       8.056       7.826    
        7.596       7.365       7.135       6.903       6.672       6.441       6.209       5.978       5.748       5.519    
        5.292       5.068       4.849       4.637       4.433       4.240       4.060       3.897       3.753       3.630    
        3.527       3.445       3.382       3.336       3.303       3.281       3.268       3.260       3.258       3.258    
        3.261       3.265       3.270       3.275       3.280       3.284       3.289       3.292       3.296       3.299    
        3.301       3.303       3.304       3.304       3.304       3.304       3.303       3.301       3.299       3.296    
        3.292       3.289       3.284       3.280       3.275       3.270       3.265       3.261       3.258       3.258    
        3.260       3.268       3.281       3.303       3.336       3.382       3.445       3.527       3.630       3.753    
        3.897       4.060       4.240       4.433       4.637       4.849       5.068       5.292       5.519       5.748    
        5.978       6.209       6.441       6.672       6.903       7.135       7.365       7.596       7.826       8.056    
        8.285       8.515       8.743       8.972       9.201       9.429       9.658       9.886    
  17    9.885       9.656       9.426       9.196       8.966       8.736       8.505       8.274       8.042       7.810    
        7.577       7.344       7.110       6.875       6.639       6.403       6.166       5.928       5.691       5.453    
        5.217       4.983       4.752       4.527       4.310       4.105       3.914       3.741       3.591       3.465    
        3.365       3.289       3.235       3.200       3.180       3.170       3.169       3.173       3.181       3.191    
        3.202       3.213       3.223       3.234       3.243       3.251       3.259       3.265       3.271       3.276    
        3.279       3.282       3.284       3.285       3.285       3.284       3.282       3.279       3.276       3.271    
        3.265       3.259       3.251       3.243       3.234       3.223       3.213       3.202       3.191       3.181    
        3.173       3.169       3.170       3.180       3.200       3.235       3.289       3.365       3.465       3.591    
        3.741       3.914       4.105       4.310       4.527       4.752       4.983       5.217       5.453       5.691    
        5.928       6.166       6.403       6.639       6.875       7.110       7.344       7.577       7.810       8.042    
        8.274       8.505       8.736       8.966       9.196       9.426       9.656       9.885    
  18    9.885       9.654       9.423       9.192       8.960       8.728       8.496       8.263       8.029       7.795    
        7.560       7.323       7.086       6.847       6.607       6.366       6.123       5.879       5.633       5.387    
        5.140       4.894       4.650       4.410       4.177       3.956       3.750       3.565       3.406       3.277    
        3.180       3.112       3.071       3.051       3.046       3.052       3.065       3.083       3.102       3.122    
        3.142       3.160       3.177       3.193       3.207       3.219       3.230       3.239       3.247       3.253    
        3.258       3.262       3.265       3.266       3.266       3.265       3.262       3.258       3.253       3.247    
        3.239       3.230       3.219       3.207       3.193       3.177       3.160       3.142       3.122       3.102    
        3.083       3.065       3.052       3.046       3.051       3.071       3.112       3.180       3.277       3.406    
        3.565       3.750       3.956       4.177       4.410       4.650       4.894       5.140       5.387       5.633    
        5.879       6.123       6.366       6.607       6.847       7.086       7.323       7.560       7.795       8.029    
        8.263       8.496       8.728       8.960       9.192       9.423       9.654       9.885    
  19    9.884       9.652       9.420       9.187       8.955       8.721       8.487       8.253       8.017       7.781    
        7.543       7.304       7.063       6.821       6.576       6.330       6.081       5.830       5.576       5.320    
        5.062       4.802       4.543       4.286       4.034       3.792       3.566       3.364       3.193       3.060    
        2.966       2.911       2.886       2.886       2.902       2.927       2.958       2.990       3.023       3.054    
        3.083       3.109       3.133       3.154       3.173       3.189       3.203       3.215       3.224       3.232    
        3.239       3.243       3.246       3.248       3.248       3.246       3.243       3.239       3.232       3.224    
        3.215       3.203       3.189       3.173       3.154       3.133       3.109       3.083       3.054       3.023    
        2.990       2.958       2.927       2.902       2.886       2.886       2.911       2.966       3.060       3.193    
        3.364       3.566       3.792       4.034       4.286       4.543       4.802       5.062       5.320       5.576    
        5.830       6.081       6.330       6.576       6.821       7.063       7.304       7.543       7.781       8.017    
        8.253       8.487       8.721       8.955       9.187       9.420       9.652       9.884    
  20    9.883       9.650       9.417       9.184       8.950       8.715       8.480       8.243       8.006       7.768    
        7.527       7.286       7.042       6.796       6.548       6.296       6.042       5.784       5.522       5.256    
        4.986       4.711       4.435       4.157       3.882       3.613       3.359       3.132       2.944       2.804    
        2.717       2.679       2.680       2.706       2.748       2.798       2.849       2.898       2.944       2.988    
        3.026       3.061       3.091       3.118       3.141       3.161       3.177       3.192       3.204       3.213    
        3.221       3.226       3.230       3.232       3.232       3.230       3.226       3.221       3.213       3.204    
        3.192       3.177       3.161       3.141       3.118       3.091       3.061       3.026       2.988       2.944    
        2.898       2.849       2.798       2.748       2.706       2.680       2.679       2.717       2.804       2.944    
        3.132       3.359       3.613       3.882       4.157       4.435       4.711       4.986       5.256       5.522    
        5.784       6.042       6.296       6.548       6.796       7.042       7.286       7.527       7.768       8.006    
        8.243       8.480       8.715       8.950       9.184       9.417       9.650       9.883    
  21    9.883       9.649       9.415       9.180       8.945       8.709       8.473       8.235       7.996       7.756    
        7.514       7.270       7.023       6.774       6.522       6.266       6.006       5.741       5.471       5.196    
        4.913       4.624      -999.0      -999.0      -999.0      -999.0      -999.0      -999.0      -999.0      -999.0    
       -999.0      -999.0      -999.0      -999.0      -999.0      -999.0      -999.0      -999.0       2.871       2.926    
        2.974       3.016       3.053       3.084       3.112       3.135       3.155       3.171       3.185       3.196    
        3.205       3.211       3.215       3.217       3.217       3.215       3.211       3.205       3.196       3.185    
        3.171       3.155       3.135       3.112       3.084       3.053       3.016       2.974       2.926       2.871    
       -999.0      -999.0      -999.0      -999.0      -999.0      -999.0      -999.0      -999.0      -999.0      -999.0    
       -999.0      -999.0      -999.0      -999.0      -999.0      -999.0       4.624       4.913       5.196       5.471    
        5.741       6.006       6.266       6.522       6.774       7.023       7.270       7.514       7.756       7.996    
        8.235       8.473       8.709       8.945       9.180       9.415       9.649       9.883    
  22    9.883       9.648       9.413       9.177       8.941       8.704       8.467       8.228       7.987       7.746    
        7.502       7.256       7.007       6.755       6.499       6.239       5.974       5.704       5.426       5.142    
        4.848       4.544      -999.0      -999.0      -999.0      -999.0      -999.0      -999.0      -999.0      -999.0    
       -999.0      -999.0      -999.0      -999.0      -999.0      -999.0      -999.0      -999.0       2.804       2.870    
        2.928       2.977       3.019       3.055       3.086       3.113       3.135       3.153       3.169       3.181    
        3.191       3.198       3.202       3.204       3.204       3.202       3.198       3.191       3.181       3.169    
        3.153       3.135       3.113       3.086       3.055       3.019       2.977       2.928       2.870       2.804    
       -999.0      -999.0      -999.0      -999.0      -999.0      -999.0      -999.0      -999.0      -999.0      -999.0    
       -999.0      -999.0      -999.0      -999.0      -999.0      -999.0       4.544       4.848       5.142       5.426    
        5.704       5.974       6.239       6.499       6.755       7.007       7.256       7.502       7.746       7.987    
        8.228       8.467       8.704       8.941       9.177       9.413       9.648       9.883    
  23    9.882       9.647       9.411       9.175       8.938       8.700       8.462       8.222       7.980       7.737    
        7.492       7.244       6.993       6.739       6.480       6.217       5.948       5.673       5.389       5.096    
        4.791       4.474      -999.0      -999.0      -999.0      -999.0      -999.0      -999.0      -999.0      -999.0    
       -999.0      -999.0      -999.0      -999.0      -999.0      -999.0      -999.0      -999.0       2.747       2.824    
        2.889       2.944       2.991       3.031       3.065       3.094       3.119       3.139       3.155       3.169    
        3.179       3.187       3.192       3.194       3.194       3.192       3.187       3.179       3.169       3.155    
        3.139       3.119       3.094       3.065       3.031       2.991       2.944       2.889       2.824       2.747    
       -999.0      -999.0      -999.0      -999.0      -999.0      -999.0      -999.0      -999.0      -999.0      -999.0    
       -999.0      -999.0      -999.0      -999.0      -999.0      -999.0       4.474       4.791       5.096       5.389    
        5.673       5.948       6.217       6.480       6.739       6.993       7.244       7.492       7.737       7.980    
        8.222       8.462       8.700       8.938       9.175       9.411       9.647       9.882    
  24    9.882       9.646       9.410       9.173       8.936       8.697       8.458       8.217       7.975       7.731    
        7.485       7.235       6.983       6.727       6.466       6.201       5.928       5.649       5.360       5.061    
        4.748       4.419      -999.0      -999.0      -999.0      -999.0      -999.0      -999.0      -999.0      -999.0    
       -999.0      -999.0      -999.0      -999.0      -999.0      -999.0      -999.0      -999.0       2.703       2.788    
        2.859       2.919       2.970       3.013       3.050       3.080       3.106       3.127       3.145       3.159    
        3.170       3.178       3.183       3.186       3.186       3.183       3.178       3.170       3.159       3.145    
        3.127       3.106       3.080       3.050       3.013       2.970       2.919       2.859       2.788       2.703    
       -999.0      -999.0      -999.0      -999.0      -999.0      -999.0      -999.0      -999.0      -999.0      -999.0    
       -999.0      -999.0      -999.0      -999.0      -999.0      -999.0       4.419       4.748       5.061       5.360    
        5.649       5.928       6.201       6.466       6.727       6.983       7.235       7.485       7.731       7.975    
        8.217       8.458       8.697       8.936       9.173       9.410       9.646       9.882    
  25    9.882       9.645       9.409       9.172       8.934       8.695       8.456       8.214       7.972       7.727    
        7.480       7.230       6.976       6.719       6.457       6.190       5.916       5.634       5.342       5.038    
        4.720       4.383      -999.0      -999.0      -999.0      -999.0      -999.0      -999.0      -999.0      -999.0    
       -999.0      -999.0      -999.0      -999.0      -999.0      -999.0      -999.0      -999.0       2.674       2.764    
        2.840       2.903       2.956       3.001       3.039       3.071       3.098       3.120       3.138       3.152    
        3.164       3.172       3.177       3.180       3.180       3.177       3.172       3.164       3.152       3.138    
        3.120       3.098       3.071       3.039       3.001       2.956       2.903       2.840       2.764       2.674    
       -999.0      -999.0      -999.0      -999.0      -999.0      -999.0      -999.0      -999.0      -999.0      -999.0    
       -999.0      -999.0      -999.0      -999.0      -999.0      -999.0       4.383       4.720       5.038       5.342    
        5.634       5.916       6.190       6.457       6.719       6.976       7.230       7.480       7.727       7.972    
        8.214       8.456       8.695       8.934       9.172       9.409       9.645       9.882    
  26    9.882       9.645       9.408       9.171       8.933       8.694       8.454       8.213       7.970       7.725    
        7.478       7.227       6.974       6.716       6.454       6.185       5.911       5.628       5.335       5.030    
        4.709       4.370      -999.0      -999.0      -999.0      -999.0      -999.0      -999.0      -999.0      -999.0    
       -999.0      -999.0      -999.0      -999.0      -999.0      -999.0      -999.0      -999.0       2.663       2.755    
        2.832       2.896       2.950       2.996       3.034       3.066       3.094       3.116       3.134       3.149    
        3.160       3.169       3.174       3.177       3.177       3.174       3.169       3.160       3.149       3.134    
        3.116       3.094       3.066       3.034       2.996       2.950       2.896       2.832       2.755       2.663    
       -999.0      -999.0      -999.0      -999.0      -999.0      -999.0      -999.0      -999.0      -999.0      -999.0    
       -999.0      -999.0      -999.0      -999.0      -999.0      -999.0       4.370       4.709       5.030       5.335    
        5.628       5.911       6.185       6.454       6.716       6.974       7.227       7.478       7.725       7.970    
        8.213       8.454       8.694       8.933       9.171       9.408       9.645       9.882    
  27    9.882       9.645       9.408       9.171       8.933       8.694       8.455       8.213       7.970       7.725    
        7.478       7.228       6.975       6.717       6.455       6.187       5.913       5.631       5.339       5.035    
        4.717       4.380      -999.0      -999.0      -999.0      -999.0      -999.0      -999.0      -999.0      -999.0    
       -999.0      -999.0      -999.0      -999.0      -999.0      -999.0      -999.0      -999.0       2.670       2.760    
        2.836       2.899       2.952       2.997       3.035       3.067       3.094       3.116       3.134       3.149    
        3.160       3.168       3.174       3.176       3.176       3.174       3.168       3.160       3.149       3.134    
        3.116       3.094       3.067       3.035       2.997       2.952       2.899       2.836       2.760       2.670    
       -999.0      -999.0      -999.0      -999.0      -999.0      -999.0      -999.0      -999.0      -999.0      -999.0    
       -999.0      -999.0      -999.0      -999.0      -999.0      -999.0       4.380       4.717       5.035       5.339    
        5.631       5.913       6.187       6.455       6.717       6.975       7.228       7.478       7.725       7.970    
        8.213       8.455       8.694       8.933       9.171       9.408       9.645       9.882    
  28    9.882       9.646       9.409       9.172       8.934       8.696       8.456       8.215       7.972       7.728    
        7.481       7.232       6.979       6.723       6.462       6.196       5.923       5.644       5.355       5.055    
        4.742       4.413      -999.0      -999.0      -999.0      -999.0      -999.0      -999.0      -999.0      -999.0    
       -999.0      -999.0      -999.0      -999.0      -999.0      -999.0      -999.0      -999.0       2.695       2.780    
        2.851       2.911       2.962       3.005       3.042       3.073       3.098       3.120       3.137       3.151    
        3.162       3.170       3.176       3.178       3.178       3.176       3.170       3.162       3.151       3.137    
        3.120       3.098       3.073       3.042       3.005       2.962       2.911       2.851       2.780       2.695    
       -999.0      -999.0      -999.0      -999.0      -999.0      -999.0      -999.0      -999.0      -999.0      -999.0    
       -999.0      -999.0      -999.0      -999.0      -999.0      -999.0       4.413       4.742       5.055       5.355    
        5.644       5.923       6.196       6.462       6.723       6.979       7.232       7.481       7.728       7.972    
        8.215       8.456       8.696       8.934       9.172       9.409       9.646       9.882    
  29    9.882       9.646       9.410       9.173       8.936       8.698       8.459       8.218       7.976       7.733    
        7.487       7.239       6.987       6.733       6.474       6.210       5.941       5.665       5.381       5.087    
        4.782       4.464      -999.0      -999.0      -999.0      -999.0      -999.0      -999.0      -999.0      -999.0    
       -999.0      -999.0      -999.0      -999.0      -999.0      -999.0      -999.0      -999.0       2.735       2.812    
        2.877       2.932       2.980       3.020       3.054       3.083       3.107       3.127       3.144       3.157    
        3.168       3.175       3.180       3.183       3.183       3.180       3.175       3.168       3.157       3.144    
        3.127       3.107       3.083       3.054       3.020       2.980       2.932       2.877       2.812       2.735    
       -999.0      -999.0      -999.0      -999.0      -999.0      -999.0      -999.0      -999.0      -999.0      -999.0    
       -999.0      -999.0      -999.0      -999.0      -999.0      -999.0       4.464       4.782       5.087       5.381    
        5.665       5.941       6.210       6.474       6.733       6.987       7.239       7.487       7.733       7.976    
        8.218       8.459       8.698       8.936       9.173       9.410       9.646       9.882    
  30    9.882       9.647       9.411       9.175       8.938       8.701       8.463       8.223       7.982       7.740    
        7.495       7.248       6.999       6.746       6.490       6.230       5.964       5.693       5.415       5.130    
        4.835       4.531      -999.0      -999.0      -999.0      -999.0      -999.0      -999.0      -999.0      -999.0    
       -999.0      -999.0      -999.0      -999.0      -999.0      -999.0      -999.0      -999.0       2.788       2.855    
        2.912       2.961       3.004       3.040       3.071       3.097       3.120       3.138       3.153       3.166    
        3.175       3.182       3.187       3.189       3.189       3.187       3.182       3.175       3.166       3.153    
        3.138       3.120       3.097       3.071       3.040       3.004       2.961       2.912       2.855       2.788    
       -999.0      -999.0      -999.0      -999.0      -999.0      -999.0      -999.0      -999.0      -999.0      -999.0    
       -999.0      -999.0      -999.0      -999.0      -999.0      -999.0       4.531       4.835       5.130       5.415    
        5.693       5.964       6.230       6.490       6.746       6.999       7.248       7.495       7.740       7.982    
        8.223       8.463       8.701       8.938       9.175       9.411       9.647       9.882    
  31    9.883       9.648       9.413       9.177       8.941       8.705       8.467       8.229       7.989       7.748    
        7.505       7.261       7.013       6.763       6.511       6.254       5.993       5.728       5.458       5.181    
        4.898       4.608       4.313       4.011       3.706       3.402       3.110       2.846       2.628       2.477    
        2.401       2.391       2.429       2.493       2.569       2.647       2.722       2.790       2.851       2.906    
        2.955       2.997       3.033       3.065       3.092       3.116       3.136       3.152       3.166       3.177    
        3.186       3.192       3.196       3.198       3.198       3.196       3.192       3.186       3.177       3.166    
        3.152       3.136       3.116       3.092       3.065       3.033       2.997       2.955       2.906       2.851    
        2.790       2.722       2.647       2.569       2.493       2.429       2.391       2.401       2.477       2.628    
        2.846       3.110       3.402       3.706       4.011       4.313       4.608       4.898       5.181       5.458    
        5.728       5.993       6.254       6.511       6.763       7.013       7.261       7.505       7.748       7.989    
        8.229       8.467       8.705       8.941       9.177       9.413       9.648       9.883    
  32    9.883       9.649       9.415       9.180       8.945       8.710       8.473       8.236       7.998       7.759    
        7.518       7.275       7.030       6.784       6.534       6.282       6.027       5.768       5.505       5.239    
        4.968       4.693       4.416       4.138       3.862       3.592       3.338       3.110       2.920       2.780    
        2.693       2.656       2.656       2.683       2.725       2.775       2.826       2.875       2.921       2.964    
        3.003       3.037       3.068       3.094       3.118       3.138       3.155       3.169       3.181       3.191    
        3.198       3.204       3.207       3.209       3.209       3.207       3.204       3.198       3.191       3.181    
        3.169       3.155       3.138       3.118       3.094       3.068       3.037       3.003       2.964       2.921    
[...]
        7.613       7.386       7.160       6.935       6.710       6.486       6.263       6.042       5.824       5.608    
        5.395       5.188       4.986       4.791       4.604       4.428       4.264       4.112       3.976       3.855    
        3.749       3.659       3.583       3.521       3.471       3.430       3.398       3.373       3.354       3.340    
        3.329       3.321       3.315       3.310       3.307       3.305       3.303       3.302       3.301       3.301    
        3.301       3.301       3.300       3.300       3.300       3.300       3.301       3.301       3.301       3.301    
        3.302       3.303       3.305       3.307       3.310       3.315       3.321       3.329       3.340       3.354    
        3.373       3.398       3.430       3.471       3.521       3.583       3.659       3.749       3.855       3.976    
        4.112       4.264       4.428       4.604       4.791       4.986       5.188       5.395       5.608       5.824    
        6.042       6.263       6.486       6.710       6.935       7.160       7.386       7.613       7.840       8.067    
        8.294       8.521       8.749       8.976       9.204       9.431       9.659       9.886    
  39    9.887       9.660       9.434       9.208       8.982       8.756       8.530       8.304       8.079       7.854    
        7.630       7.406       7.182       6.960       6.739       6.519       6.301       6.085       5.872       5.662    
        5.456       5.255       5.060       4.872       4.693       4.523       4.364       4.217       4.083       3.963    
        3.857       3.764       3.684       3.616       3.559       3.512       3.474       3.442       3.416       3.395    
        3.379       3.365       3.354       3.346       3.339       3.333       3.329       3.326       3.323       3.321    
        3.319       3.318       3.318       3.317       3.317       3.318       3.318       3.319       3.321       3.323    
        3.326       3.329       3.333       3.339       3.346       3.354       3.365       3.379       3.395       3.416    
        3.442       3.474       3.512       3.559       3.616       3.684       3.764       3.857       3.963       4.083    
        4.217       4.364       4.523       4.693       4.872       5.060       5.255       5.456       5.662       5.872    
        6.085       6.301       6.519       6.739       6.960       7.182       7.406       7.630       7.854       8.079    
        8.304       8.530       8.756       8.982       9.208       9.434       9.660       9.887    
  40    9.887       9.662       9.437       9.212       8.987       8.763       8.538       8.314       8.091       7.868    
        7.646       7.424       7.204       6.985       6.767       6.551       6.337       6.125       5.917       5.712    
        5.512       5.317       5.128       4.946       4.772       4.607       4.453       4.309       4.178       4.058    
        3.951       3.856       3.773       3.701       3.639       3.587       3.542       3.505       3.473       3.447    
        3.425       3.407       3.392       3.380       3.369       3.361       3.354       3.348       3.344       3.340    
        3.338       3.336       3.334       3.334       3.334       3.334       3.336       3.338       3.340       3.344    
        3.348       3.354       3.361       3.369       3.380       3.392       3.407       3.425       3.447       3.473    
        3.505       3.542       3.587       3.639       3.701       3.773       3.856       3.951       4.058       4.178    
        4.309       4.453       4.607       4.772       4.946       5.128       5.317       5.512       5.712       5.917    
        6.125       6.337       6.551       6.767       6.985       7.204       7.424       7.646       7.868       8.091    
        8.314       8.538       8.763       8.987       9.212       9.437       9.662       9.887    
  41    9.888       9.664       9.440       9.216       8.993       8.769       8.546       8.324       8.102       7.881    
        7.661       7.442       7.224       7.008       6.793       6.580       6.370       6.163       5.959       5.759    
        5.563       5.373       5.189       5.012       4.843       4.682       4.531       4.390       4.260       4.142    
        4.034       3.937       3.852       3.776       3.710       3.653       3.604       3.562       3.525       3.494    
        3.468       3.446       3.427       3.411       3.398       3.387       3.378       3.370       3.364       3.359    
        3.355       3.352       3.351       3.350       3.350       3.351       3.352       3.355       3.359       3.364    
        3.370       3.378       3.387       3.398       3.411       3.427       3.446       3.468       3.494       3.525    
        3.562       3.604       3.653       3.710       3.776       3.852       3.937       4.034       4.142       4.260    
        4.390       4.531       4.682       4.843       5.012       5.189       5.373       5.563       5.759       5.959    
        6.163       6.370       6.580       6.793       7.008       7.224       7.442       7.661       7.881       8.102    
        8.324       8.546       8.769       8.993       9.216       9.440       9.664       9.888    
  42    9.888       9.665       9.443       9.220       8.997       8.775       8.554       8.333       8.113       7.894    
        7.675       7.458       7.243       7.029       6.817       6.607       6.401       6.197       5.997       5.801    
        5.609       5.423       5.244       5.071       4.905       4.748       4.600       4.461       4.333       4.214    
        4.106       4.009       3.921       3.843       3.773       3.712       3.659       3.613       3.572       3.538    
        3.508       3.482       3.460       3.441       3.425       3.411       3.400       3.390       3.383       3.377    
        3.372       3.368       3.366       3.365       3.365       3.366       3.368       3.372       3.377       3.383    
        3.390       3.400       3.411       3.425       3.441       3.460       3.482       3.508       3.538       3.572    
        3.613       3.659       3.712       3.773       3.843       3.921       4.009       4.106       4.214       4.333    
        4.461       4.600       4.748       4.905       5.071       5.244       5.423       5.609       5.801       5.997    
        6.197       6.401       6.607       6.817       7.029       7.243       7.458       7.675       7.894       8.113    
        8.333       8.554       8.775       8.997       9.220       9.443       9.665       9.888    
  43    9.889       9.667       9.445       9.223       9.002       8.781       8.561       8.341       8.123       7.905    
        7.689       7.473       7.260       7.048       6.839       6.632       6.428       6.227       6.031       5.838    
        5.650       5.468       5.292       5.122       4.960       4.805       4.660       4.523       4.395       4.277    
        4.169       4.070       3.981       3.900       3.828       3.764       3.708       3.658       3.614       3.576    
        3.543       3.514       3.489       3.468       3.449       3.434       3.420       3.409       3.400       3.393    
        3.387       3.383       3.380       3.379       3.379       3.380       3.383       3.387       3.393       3.400    
        3.409       3.420       3.434       3.449       3.468       3.489       3.514       3.543       3.576       3.614    
        3.658       3.708       3.764       3.828       3.900       3.981       4.070       4.169       4.277       4.395    
        4.523       4.660       4.805       4.960       5.122       5.292       5.468       5.650       5.838       6.031    
        6.227       6.428       6.632       6.839       7.048       7.260       7.473       7.689       7.905       8.123    
        8.341       8.561       8.781       9.002       9.223       9.445       9.667       9.889    
  44    9.889       9.668       9.447       9.227       9.006       8.786       8.567       8.349       8.132       7.915    
        7.700       7.487       7.275       7.066       6.859       6.654       6.453       6.255       6.061       5.871    
        5.686       5.507       5.333       5.166       5.007       4.855       4.711       4.575       4.449       4.331    
        4.223       4.123       4.032       3.950       3.876       3.809       3.750       3.698       3.651       3.610    
        3.574       3.543       3.515       3.491       3.471       3.453       3.439       3.426       3.416       3.407    
        3.401       3.396       3.393       3.391       3.391       3.393       3.396       3.401       3.407       3.416    
        3.426       3.439       3.453       3.471       3.491       3.515       3.543       3.574       3.610       3.651    
        3.698       3.750       3.809       3.876       3.950       4.032       4.123       4.223       4.331       4.449    
        4.575       4.711       4.855       5.007       5.166       5.333       5.507       5.686       5.871       6.061    
        6.255       6.453       6.654       6.859       7.066       7.275       7.487       7.700       7.915       8.132    
        8.349       8.567       8.786       9.006       9.227       9.447       9.668       9.889    
  45    9.890       9.669       9.449       9.229       9.010       8.791       8.573       8.356       8.139       7.924    
        7.711       7.499       7.289       7.081       6.876       6.673       6.474       6.278       6.086       5.899    
        5.717       5.540       5.369       5.204       5.047       4.896       4.754       4.620       4.494       4.376    
        4.268       4.167       4.076       3.992       3.916       3.848       3.786       3.731       3.682       3.639    
        3.601       3.567       3.538       3.512       3.490       3.471       3.455       3.441       3.430       3.420    
        3.413       3.408       3.404       3.403       3.403       3.404       3.408       3.413       3.420       3.430    
        3.441       3.455       3.471       3.490       3.512       3.538       3.567       3.601       3.639       3.682    
        3.731       3.786       3.848       3.916       3.992       4.076       4.167       4.268       4.376       4.494    
        4.620       4.754       4.896       5.047       5.204       5.369       5.540       5.717       5.899       6.086    
        6.278       6.474       6.673       6.876       7.081       7.289       7.499       7.711       7.924       8.139    
        8.356       8.573       8.791       9.010       9.229       9.449       9.669       9.890    
  46    9.890       9.670       9.451       9.232       9.013       8.795       8.578       8.361       8.146       7.932    
        7.720       7.509       7.300       7.094       6.890       6.689       6.492       6.298       6.108       5.923    
        5.742       5.567       5.398       5.235       5.079       4.931       4.789       4.656       4.531       4.413    
        4.305       4.204       4.111       4.026       3.949       3.879       3.816       3.759       3.709       3.663    
        3.623       3.588       3.557       3.530       3.506       3.486       3.468       3.454       3.441       3.431    
        3.424       3.418       3.414       3.412       3.412       3.414       3.418       3.424       3.431       3.441    
        3.454       3.468       3.486       3.506       3.530       3.557       3.588       3.623       3.663       3.709    
        3.759       3.816       3.879       3.949       4.026       4.111       4.204       4.305       4.413       4.531    
        4.656       4.789       4.931       5.079       5.235       5.398       5.567       5.742       5.923       6.108    
        6.298       6.492       6.689       6.890       7.094       7.300       7.509       7.720       7.932       8.146    
        8.361       8.578       8.795       9.013       9.232       9.451       9.670       9.890    
  47    9.890       9.671       9.452       9.234       9.016       8.798       8.582       8.366       8.151       7.938    
        7.727       7.517       7.310       7.104       6.902       6.702       6.506       6.314       6.125       5.941    
        5.763       5.589       5.422       5.260       5.106       4.958       4.818       4.685       4.560       4.443    
        4.334       4.233       4.139       4.054       3.975       3.904       3.840       3.782       3.730       3.683    
        3.641       3.605       3.572       3.544       3.519       3.498       3.479       3.464       3.451       3.440    
        3.432       3.426       3.422       3.420       3.420       3.422       3.426       3.432       3.440       3.451    
        3.464       3.479       3.498       3.519       3.544       3.572       3.605       3.641       3.683       3.730    
        3.782       3.840       3.904       3.975       4.054       4.139       4.233       4.334       4.443       4.560    
        4.685       4.818       4.958       5.106       5.260       5.422       5.589       5.763       5.941       6.125    
        6.314       6.506       6.702       6.902       7.104       7.310       7.517       7.727       7.938       8.151    
        8.366       8.582       8.798       9.016       9.234       9.452       9.671       9.890    
  48    9.891       9.672       9.453       9.235       9.018       8.801       8.585       8.369       8.156       7.943    
        7.732       7.523       7.316       7.112       6.910       6.712       6.517       6.325       6.138       5.955    
        5.778       5.606       5.439       5.279       5.125       4.978       4.838       4.706       4.581       4.465    
        4.355       4.254       4.160       4.074       3.995       3.923       3.858       3.798       3.745       3.698    
        3.655       3.617       3.584       3.555       3.529       3.507       3.488       3.472       3.458       3.447    
        3.439       3.432       3.428       3.426       3.426       3.428       3.432       3.439       3.447       3.458    
        3.472       3.488       3.507       3.529       3.555       3.584       3.617       3.655       3.698       3.745    
        3.798       3.858       3.923       3.995       4.074       4.160       4.254       4.355       4.465       4.581    
        4.706       4.838       4.978       5.125       5.279       5.439       5.606       5.778       5.955       6.138    
        6.325       6.517       6.712       6.910       7.112       7.316       7.523       7.732       7.943       8.156    
        8.369       8.585       8.801       9.018       9.235       9.453       9.672       9.891    
  49    9.891       9.672       9.454       9.236       9.019       8.802       8.587       8.372       8.158       7.946    
        7.736       7.527       7.321       7.117       6.916       6.718       6.524       6.333       6.147       5.965    
        5.788       5.616       5.451       5.291       5.138       4.991       4.852       4.720       4.596       4.479    
        4.370       4.268       4.174       4.088       4.008       3.935       3.869       3.810       3.756       3.707    
        3.664       3.626       3.592       3.562       3.536       3.513       3.493       3.477       3.463       3.452    
        3.443       3.437       3.432       3.430       3.430       3.432       3.437       3.443       3.452       3.463    
        3.477       3.493       3.513       3.536       3.562       3.592       3.626       3.664       3.707       3.756    
        3.810       3.869       3.935       4.008       4.088       4.174       4.268       4.370       4.479       4.596    
        4.720       4.852       4.991       5.138       5.291       5.451       5.616       5.788       5.965       6.147    
        6.333       6.524       6.718       6.916       7.117       7.321       7.527       7.736       7.946       8.158    
        8.372       8.587       8.802       9.019       9.236       9.454       9.672       9.891    
  50    9.891       9.673       9.454       9.237       9.020       8.803       8.588       8.373       8.160       7.948    
        7.738       7.530       7.324       7.120       6.919       6.722       6.528       6.337       6.151       5.970    
        5.793       5.622       5.456       5.297       5.144       4.998       4.859       4.727       4.603       4.486    
        4.377       4.275       4.181       4.094       4.015       3.942       3.875       3.815       3.761       3.712    
        3.669       3.630       3.596       3.565       3.539       3.516       3.496       3.479       3.466       3.454    
        3.445       3.439       3.434       3.432       3.432       3.434       3.439       3.445       3.454       3.466    
        3.479       3.496       3.516       3.539       3.565       3.596       3.630       3.669       3.712       3.761    
        3.815       3.875       3.942       4.015       4.094       4.181       4.275       4.377       4.486       4.603    
        4.727       4.859       4.998       5.144       5.297       5.456       5.622       5.793       5.970       6.151    
        6.337       6.528       6.722       6.919       7.120       7.324       7.530       7.738       7.948       8.160    
        8.373       8.588       8.803       9.020       9.237       9.454       9.673       9.891    

 HEAD WILL BE SAVED ON UNIT   76 AT END OF TIME STEP   1, STRESS PERIOD    1
1
  VOLUMETRIC BUDGET FOR ENTIRE MODEL AT END OF TIME STEP  1 IN STRESS PERIOD   1
  ------------------------------------------------------------------------------

     CUMULATIVE VOLUMES      L**3       RATES FOR THIS TIME STEP      L**3/T
     ------------------                 ------------------------

           IN:                                      IN:
           ---                                      ---
             STORAGE =           0.0000               STORAGE =           0.0000
       CONSTANT HEAD =           0.0000         CONSTANT HEAD =           0.0000
               WELLS =           0.0000                 WELLS =           0.0000
     HEAD DEP BOUNDS =       1.1000E-02       HEAD DEP BOUNDS =       1.1000E-02
    PARENT FLUX B.C. =           0.0000      PARENT FLUX B.C. =           0.0000

            TOTAL IN =       1.1000E-02              TOTAL IN =       1.1000E-02

          OUT:                                     OUT:
          ----                                     ----
             STORAGE =           0.0000               STORAGE =           0.0000
       CONSTANT HEAD =           0.0000         CONSTANT HEAD =           0.0000
               WELLS =           0.0000                 WELLS =           0.0000
     HEAD DEP BOUNDS =           0.0000       HEAD DEP BOUNDS =           0.0000
    PARENT FLUX B.C. =       1.1000E-02      PARENT FLUX B.C. =       1.1000E-02

           TOTAL OUT =       1.1000E-02             TOTAL OUT =       1.1000E-02

            IN - OUT =      -3.4459E-08              IN - OUT =      -3.4459E-08

 PERCENT DISCREPANCY =           0.00     PERCENT DISCREPANCY =           0.00






          TIME SUMMARY AT END OF TIME STEP   1 IN STRESS PERIOD    1
                    SECONDS     MINUTES      HOURS       DAYS        YEARS
                    -----------------------------------------------------------
   TIME STEP LENGTH  1.0000     1.66667E-02 2.77778E-04 1.15741E-05 3.16881E-08
 STRESS PERIOD TIME  1.0000     1.66667E-02 2.77778E-04 1.15741E-05 3.16881E-08
         TOTAL TIME  1.0000     1.66667E-02 2.77778E-04 1.15741E-05 3.16881E-08
1
