                                  MODFLOW-LGR2     
      U.S. GEOLOGICAL SURVEY MODULAR FINITE-DIFFERENCE GROUND-WATER FLOW MODEL
                            VERSION 2.0.0  06/25/2013

 LIST FILE: ex3_child.out
                         UNIT   26
#LIST   26 ex3_child_bfh.out                                                                                                                                                                                                                                                                                

 OPENING ex3_child.ba6
 FILE TYPE:BAS6   UNIT    2   STATUS:OLD    
 FORMAT:FORMATTED              ACCESS:SEQUENTIAL          

 OPENING ex3_child.bc6
 FILE TYPE:BCF6   UNIT   21   STATUS:OLD    
 FORMAT:FORMATTED              ACCESS:SEQUENTIAL          

 OPENING ex3_child.dis
 FILE TYPE:DIS   UNIT   29   STATUS:OLD    
 FORMAT:FORMATTED              ACCESS:SEQUENTIAL          

 OPENING ex3_child.oc
 FILE TYPE:OC   UNIT   20   STATUS:OLD    
 FORMAT:FORMATTED              ACCESS:SEQUENTIAL          

 OPENING ex3_child.hed
 FILE TYPE:DATA(BINARY)   UNIT   31   STATUS:UNKNOWN
 FORMAT:BINARY                 ACCESS:SEQUENTIAL          

 OPENING ex3_child.flw
 FILE TYPE:DATA(BINARY)   UNIT   41   STATUS:UNKNOWN
 FORMAT:BINARY                 ACCESS:SEQUENTIAL          

 OPENING ex3_child.pcg
 FILE TYPE:PCG   UNIT   22   STATUS:OLD    
 FORMAT:FORMATTED              ACCESS:SEQUENTIAL          

 OPENING ex3_child.riv
 FILE TYPE:RIV   UNIT   25   STATUS:OLD    
 FORMAT:FORMATTED              ACCESS:SEQUENTIAL          
#WEL    27 ex3_child.wel                                                                                                                                                                                                                                                                                    
#BFH2  80 ex3_child_bfh.hed                                                                                                                                                                                                                                                                                 

 OPENING ex3_child_bfh.hed
 FILE TYPE:DATA   UNIT   80   STATUS:UNKNOWN
 FORMAT:FORMATTED              ACCESS:SEQUENTIAL          

 OPENING ex3_child_bfh.flw
 FILE TYPE:DATA   UNIT   81   STATUS:UNKNOWN
 FORMAT:FORMATTED              ACCESS:SEQUENTIAL          

 OPENING ex3_child.bot
 FILE TYPE:DATA   UNIT   51   STATUS:UNKNOWN
 FORMAT:FORMATTED              ACCESS:SEQUENTIAL          

 BAS -- BASIC PACKAGE, VERSION 7, 5/2/2005 INPUT READ FROM UNIT    2
 
 MODFLOW was compiled using mixed precision
 Precision of REAL variables:           6
 Precision of DOUBLE PRECISION variables:          15

 DISCRETIZATION INPUT DATA READ FROM UNIT   29
    6 LAYERS        15 ROWS        18 COLUMNS
    1 STRESS PERIOD(S) IN SIMULATION
 MODEL TIME UNIT IS SECONDS
 MODEL LENGTH UNIT IS METERS
  Confining bed flag for each layer:
   0   0   0   0   0   0

                     DELR =   34.3133    

                     DELC =   22.8756    



           TOP ELEVATION OF LAYER 1
 READING ON UNIT   51 WITH FORMAT: (FREE)              

           1       2       3       4       5       6       7       8       9      10      11      12      13      14      15
          16      17      18
 ...........................................................................................................................
   1   49.405  49.286  49.167  49.048  48.929  48.810  48.690  48.571  48.452  48.333  48.214  48.095  47.976  47.857  47.738
       47.619  47.500  47.381
   2   49.405  49.286  49.167  49.048  48.929  48.810  48.690  48.571  48.452  48.333  48.214  48.095  47.976  47.857  47.738
       47.619  47.500  47.381
   3   49.405  49.286  49.167  49.048  48.929  48.810  48.690  48.571  48.452  48.333  48.214  48.095  47.976  47.857  47.738
       47.619  47.500  47.381
   4   49.405  49.286  49.167  49.048  48.929  48.810  48.690  48.571  48.452  48.333  48.214  48.095  47.976  47.857  47.738
       47.619  47.500  47.381
   5   49.405  49.286  49.167  49.048  48.929  48.810  48.690  48.571  48.452  48.333  48.214  48.095  47.976  47.857  47.738
       47.619  47.500  47.381
   6   49.405  49.286  49.167  49.048  48.929  48.810  48.690  48.571  48.452  48.333  48.214  48.095  47.976  47.857  47.738
       47.619  47.500  47.381
   7   49.405  49.286  49.167  49.048  48.929  48.810  48.690  48.571  48.452  48.333  48.214  48.095  47.976  47.857  47.738
       47.619  47.500  47.381
   8   49.405  49.286  49.167  49.048  48.929  48.810  48.690  48.571  48.452  48.333  48.214  48.095  47.976  47.857  47.738
       47.619  47.500  47.381
   9   49.405  49.286  49.167  49.048  48.929  48.810  48.690  48.571  48.452  48.333  48.214  48.095  47.976  47.857  47.738
       47.619  47.500  47.381
  10   49.405  49.286  49.167  49.048  48.929  48.810  48.690  48.571  48.452  48.333  48.214  48.095  47.976  47.857  47.738
       47.619  47.500  47.381
  11   49.405  49.286  49.167  49.048  48.929  48.810  48.690  48.571  48.452  48.333  48.214  48.095  47.976  47.857  47.738
       47.619  47.500  47.381
  12   49.405  49.286  49.167  49.048  48.929  48.810  48.690  48.571  48.452  48.333  48.214  48.095  47.976  47.857  47.738
       47.619  47.500  47.381
  13   49.405  49.286  49.167  49.048  48.929  48.810  48.690  48.571  48.452  48.333  48.214  48.095  47.976  47.857  47.738
       47.619  47.500  47.381
  14   49.405  49.286  49.167  49.048  48.929  48.810  48.690  48.571  48.452  48.333  48.214  48.095  47.976  47.857  47.738
       47.619  47.500  47.381
  15   49.405  49.286  49.167  49.048  48.929  48.810  48.690  48.571  48.452  48.333  48.214  48.095  47.976  47.857  47.738
       47.619  47.500  47.381



             MODEL LAYER BOTTOM EL. FOR LAYER   1
 READING ON UNIT   51 WITH FORMAT: (FREE)              

           1       2       3       4       5       6       7       8       9      10      11      12      13      14      15
          16      17      18
 ...........................................................................................................................
   1   43.849  43.730  43.611  43.492  43.373  43.254  43.135  43.016  42.897  42.778  42.659  42.540  42.421  42.302  42.183
       42.063  41.944  41.825
   2   43.849  43.730  43.611  43.492  43.373  43.254  43.135  43.016  42.897  42.778  42.659  42.540  42.421  42.302  42.183
       42.063  41.944  41.825
   3   43.849  43.730  43.611  43.492  43.373  43.254  43.135  43.016  42.897  42.778  42.659  42.540  42.421  42.302  42.183
       42.063  41.944  41.825
   4   43.849  43.730  43.611  43.492  43.373  43.254  43.135  43.016  42.897  42.778  42.659  42.540  42.421  42.302  42.183
       42.063  41.944  41.825
   5   43.849  43.730  43.611  43.492  43.373  43.254  43.135  43.016  42.897  42.778  42.659  42.540  42.421  42.302  42.183
       42.063  41.944  41.825
   6   43.849  43.730  43.611  43.492  43.373  43.254  43.135  43.016  42.897  42.778  42.659  42.540  42.421  42.302  42.183
       42.063  41.944  41.825
   7   43.849  43.730  43.611  43.492  43.373  43.254  43.135  43.016  42.897  42.778  42.659  42.540  42.421  42.302  42.183
       42.063  41.944  41.825
   8   43.849  43.730  43.611  43.492  43.373  43.254  43.135  43.016  42.897  42.778  42.659  42.540  42.421  42.302  42.183
       42.063  41.944  41.825
   9   43.849  43.730  43.611  43.492  43.373  43.254  43.135  43.016  42.897  42.778  42.659  42.540  42.421  42.302  42.183
       42.063  41.944  41.825
  10   43.849  43.730  43.611  43.492  43.373  43.254  43.135  43.016  42.897  42.778  42.659  42.540  42.421  42.302  42.183
       42.063  41.944  41.825
  11   43.849  43.730  43.611  43.492  43.373  43.254  43.135  43.016  42.897  42.778  42.659  42.540  42.421  42.302  42.183
       42.063  41.944  41.825
  12   43.849  43.730  43.611  43.492  43.373  43.254  43.135  43.016  42.897  42.778  42.659  42.540  42.421  42.302  42.183
       42.063  41.944  41.825
  13   43.849  43.730  43.611  43.492  43.373  43.254  43.135  43.016  42.897  42.778  42.659  42.540  42.421  42.302  42.183
       42.063  41.944  41.825
  14   43.849  43.730  43.611  43.492  43.373  43.254  43.135  43.016  42.897  42.778  42.659  42.540  42.421  42.302  42.183
       42.063  41.944  41.825
  15   43.849  43.730  43.611  43.492  43.373  43.254  43.135  43.016  42.897  42.778  42.659  42.540  42.421  42.302  42.183
       42.063  41.944  41.825



             MODEL LAYER BOTTOM EL. FOR LAYER   2
 READING ON UNIT   51 WITH FORMAT: (FREE)              

           1       2       3       4       5       6       7       8       9      10      11      12      13      14      15
          16      17      18
 ...........................................................................................................................
   1   38.294  38.175  38.056  37.937  37.817  37.698  37.579  37.460  37.341  37.222  37.103  36.984  36.865  36.746  36.627
       36.508  36.389  36.270
   2   38.294  38.175  38.056  37.937  37.817  37.698  37.579  37.460  37.341  37.222  37.103  36.984  36.865  36.746  36.627
       36.508  36.389  36.270
   3   38.294  38.175  38.056  37.937  37.817  37.698  37.579  37.460  37.341  37.222  37.103  36.984  36.865  36.746  36.627
       36.508  36.389  36.270
   4   38.294  38.175  38.056  37.937  37.817  37.698  37.579  37.460  37.341  37.222  37.103  36.984  36.865  36.746  36.627
       36.508  36.389  36.270
   5   38.294  38.175  38.056  37.937  37.817  37.698  37.579  37.460  37.341  37.222  37.103  36.984  36.865  36.746  36.627
       36.508  36.389  36.270
   6   38.294  38.175  38.056  37.937  37.817  37.698  37.579  37.460  37.341  37.222  37.103  36.984  36.865  36.746  36.627
       36.508  36.389  36.270
   7   38.294  38.175  38.056  37.937  37.817  37.698  37.579  37.460  37.341  37.222  37.103  36.984  36.865  36.746  36.627
       36.508  36.389  36.270
   8   38.294  38.175  38.056  37.937  37.817  37.698  37.579  37.460  37.341  37.222  37.103  36.984  36.865  36.746  36.627
       36.508  36.389  36.270
   9   38.294  38.175  38.056  37.937  37.817  37.698  37.579  37.460  37.341  37.222  37.103  36.984  36.865  36.746  36.627
       36.508  36.389  36.270
  10   38.294  38.175  38.056  37.937  37.817  37.698  37.579  37.460  37.341  37.222  37.103  36.984  36.865  36.746  36.627
       36.508  36.389  36.270
  11   38.294  38.175  38.056  37.937  37.817  37.698  37.579  37.460  37.341  37.222  37.103  36.984  36.865  36.746  36.627
       36.508  36.389  36.270
  12   38.294  38.175  38.056  37.937  37.817  37.698  37.579  37.460  37.341  37.222  37.103  36.984  36.865  36.746  36.627
       36.508  36.389  36.270
  13   38.294  38.175  38.056  37.937  37.817  37.698  37.579  37.460  37.341  37.222  37.103  36.984  36.865  36.746  36.627
       36.508  36.389  36.270
  14   38.294  38.175  38.056  37.937  37.817  37.698  37.579  37.460  37.341  37.222  37.103  36.984  36.865  36.746  36.627
       36.508  36.389  36.270
  15   38.294  38.175  38.056  37.937  37.817  37.698  37.579  37.460  37.341  37.222  37.103  36.984  36.865  36.746  36.627
       36.508  36.389  36.270



             MODEL LAYER BOTTOM EL. FOR LAYER   3
 READING ON UNIT   51 WITH FORMAT: (FREE)              

           1       2       3       4       5       6       7       8       9      10      11      12      13      14      15
          16      17      18
 ...........................................................................................................................
   1   32.738  32.619  32.500  32.381  32.262  32.143  32.024  31.905  31.786  31.667  31.548  31.429  31.310  31.190  31.071
       30.952  30.833  30.714
   2   32.738  32.619  32.500  32.381  32.262  32.143  32.024  31.905  31.786  31.667  31.548  31.429  31.310  31.190  31.071
       30.952  30.833  30.714
   3   32.738  32.619  32.500  32.381  32.262  32.143  32.024  31.905  31.786  31.667  31.548  31.429  31.310  31.190  31.071
       30.952  30.833  30.714
   4   32.738  32.619  32.500  32.381  32.262  32.143  32.024  31.905  31.786  31.667  31.548  31.429  31.310  31.190  31.071
       30.952  30.833  30.714
   5   32.738  32.619  32.500  32.381  32.262  32.143  32.024  31.905  31.786  31.667  31.548  31.429  31.310  31.190  31.071
       30.952  30.833  30.714
   6   32.738  32.619  32.500  32.381  32.262  32.143  32.024  31.905  31.786  31.667  31.548  31.429  31.310  31.190  31.071
       30.952  30.833  30.714
   7   32.738  32.619  32.500  32.381  32.262  32.143  32.024  31.905  31.786  31.667  31.548  31.429  31.310  31.190  31.071
       30.952  30.833  30.714
   8   32.738  32.619  32.500  32.381  32.262  32.143  32.024  31.905  31.786  31.667  31.548  31.429  31.310  31.190  31.071
       30.952  30.833  30.714
   9   32.738  32.619  32.500  32.381  32.262  32.143  32.024  31.905  31.786  31.667  31.548  31.429  31.310  31.190  31.071
       30.952  30.833  30.714
  10   32.738  32.619  32.500  32.381  32.262  32.143  32.024  31.905  31.786  31.667  31.548  31.429  31.310  31.190  31.071
       30.952  30.833  30.714
  11   32.738  32.619  32.500  32.381  32.262  32.143  32.024  31.905  31.786  31.667  31.548  31.429  31.310  31.190  31.071
       30.952  30.833  30.714
  12   32.738  32.619  32.500  32.381  32.262  32.143  32.024  31.905  31.786  31.667  31.548  31.429  31.310  31.190  31.071
       30.952  30.833  30.714
  13   32.738  32.619  32.500  32.381  32.262  32.143  32.024  31.905  31.786  31.667  31.548  31.429  31.310  31.190  31.071
       30.952  30.833  30.714
  14   32.738  32.619  32.500  32.381  32.262  32.143  32.024  31.905  31.786  31.667  31.548  31.429  31.310  31.190  31.071
       30.952  30.833  30.714
  15   32.738  32.619  32.500  32.381  32.262  32.143  32.024  31.905  31.786  31.667  31.548  31.429  31.310  31.190  31.071
       30.952  30.833  30.714



             MODEL LAYER BOTTOM EL. FOR LAYER   4
 READING ON UNIT   51 WITH FORMAT: (FREE)              

           1       2       3       4       5       6       7       8       9      10      11      12      13      14      15
          16      17      18
 ...........................................................................................................................
   1   27.183  27.063  26.944  26.825  26.706  26.587  26.468  26.349  26.230  26.111  25.992  25.873  25.754  25.635  25.516
       25.397  25.278  25.159
   2   27.183  27.063  26.944  26.825  26.706  26.587  26.468  26.349  26.230  26.111  25.992  25.873  25.754  25.635  25.516
       25.397  25.278  25.159
   3   27.183  27.063  26.944  26.825  26.706  26.587  26.468  26.349  26.230  26.111  25.992  25.873  25.754  25.635  25.516
       25.397  25.278  25.159
   4   27.183  27.063  26.944  26.825  26.706  26.587  26.468  26.349  26.230  26.111  25.992  25.873  25.754  25.635  25.516
       25.397  25.278  25.159
   5   27.183  27.063  26.944  26.825  26.706  26.587  26.468  26.349  26.230  26.111  25.992  25.873  25.754  25.635  25.516
       25.397  25.278  25.159
   6   27.183  27.063  26.944  26.825  26.706  26.587  26.468  26.349  26.230  26.111  25.992  25.873  25.754  25.635  25.516
       25.397  25.278  25.159
   7   27.183  27.063  26.944  26.825  26.706  26.587  26.468  26.349  26.230  26.111  25.992  25.873  25.754  25.635  25.516
       25.397  25.278  25.159
   8   27.183  27.063  26.944  26.825  26.706  26.587  26.468  26.349  26.230  26.111  25.992  25.873  25.754  25.635  25.516
       25.397  25.278  25.159
   9   27.183  27.063  26.944  26.825  26.706  26.587  26.468  26.349  26.230  26.111  25.992  25.873  25.754  25.635  25.516
       25.397  25.278  25.159
  10   27.183  27.063  26.944  26.825  26.706  26.587  26.468  26.349  26.230  26.111  25.992  25.873  25.754  25.635  25.516
       25.397  25.278  25.159
  11   27.183  27.063  26.944  26.825  26.706  26.587  26.468  26.349  26.230  26.111  25.992  25.873  25.754  25.635  25.516
       25.397  25.278  25.159
  12   27.183  27.063  26.944  26.825  26.706  26.587  26.468  26.349  26.230  26.111  25.992  25.873  25.754  25.635  25.516
       25.397  25.278  25.159
  13   27.183  27.063  26.944  26.825  26.706  26.587  26.468  26.349  26.230  26.111  25.992  25.873  25.754  25.635  25.516
       25.397  25.278  25.159
  14   27.183  27.063  26.944  26.825  26.706  26.587  26.468  26.349  26.230  26.111  25.992  25.873  25.754  25.635  25.516
       25.397  25.278  25.159
  15   27.183  27.063  26.944  26.825  26.706  26.587  26.468  26.349  26.230  26.111  25.992  25.873  25.754  25.635  25.516
       25.397  25.278  25.159



             MODEL LAYER BOTTOM EL. FOR LAYER   5
 READING ON UNIT   51 WITH FORMAT: (FREE)              

           1       2       3       4       5       6       7       8       9      10      11      12      13      14      15
          16      17      18
 ...........................................................................................................................
   1   21.627  21.508  21.389  21.270  21.151  21.032  20.913  20.794  20.675  20.556  20.437  20.317  20.198  20.079  19.960
       19.841  19.722  19.603
   2   21.627  21.508  21.389  21.270  21.151  21.032  20.913  20.794  20.675  20.556  20.437  20.317  20.198  20.079  19.960
       19.841  19.722  19.603
   3   21.627  21.508  21.389  21.270  21.151  21.032  20.913  20.794  20.675  20.556  20.437  20.317  20.198  20.079  19.960
       19.841  19.722  19.603
   4   21.627  21.508  21.389  21.270  21.151  21.032  20.913  20.794  20.675  20.556  20.437  20.317  20.198  20.079  19.960
       19.841  19.722  19.603
   5   21.627  21.508  21.389  21.270  21.151  21.032  20.913  20.794  20.675  20.556  20.437  20.317  20.198  20.079  19.960
       19.841  19.722  19.603
   6   21.627  21.508  21.389  21.270  21.151  21.032  20.913  20.794  20.675  20.556  20.437  20.317  20.198  20.079  19.960
       19.841  19.722  19.603
   7   21.627  21.508  21.389  21.270  21.151  21.032  20.913  20.794  20.675  20.556  20.437  20.317  20.198  20.079  19.960
       19.841  19.722  19.603
   8   21.627  21.508  21.389  21.270  21.151  21.032  20.913  20.794  20.675  20.556  20.437  20.317  20.198  20.079  19.960
       19.841  19.722  19.603
   9   21.627  21.508  21.389  21.270  21.151  21.032  20.913  20.794  20.675  20.556  20.437  20.317  20.198  20.079  19.960
       19.841  19.722  19.603
  10   21.627  21.508  21.389  21.270  21.151  21.032  20.913  20.794  20.675  20.556  20.437  20.317  20.198  20.079  19.960
       19.841  19.722  19.603
  11   21.627  21.508  21.389  21.270  21.151  21.032  20.913  20.794  20.675  20.556  20.437  20.317  20.198  20.079  19.960
       19.841  19.722  19.603
  12   21.627  21.508  21.389  21.270  21.151  21.032  20.913  20.794  20.675  20.556  20.437  20.317  20.198  20.079  19.960
       19.841  19.722  19.603
  13   21.627  21.508  21.389  21.270  21.151  21.032  20.913  20.794  20.675  20.556  20.437  20.317  20.198  20.079  19.960
       19.841  19.722  19.603
  14   21.627  21.508  21.389  21.270  21.151  21.032  20.913  20.794  20.675  20.556  20.437  20.317  20.198  20.079  19.960
       19.841  19.722  19.603
  15   21.627  21.508  21.389  21.270  21.151  21.032  20.913  20.794  20.675  20.556  20.437  20.317  20.198  20.079  19.960
       19.841  19.722  19.603



             MODEL LAYER BOTTOM EL. FOR LAYER   6
 READING ON UNIT   51 WITH FORMAT: (FREE)              

           1       2       3       4       5       6       7       8       9      10      11      12      13      14      15
          16      17      18
 ...........................................................................................................................
   1   16.071  15.952  15.833  15.714  15.595  15.476  15.357  15.238  15.119  15.000  14.881  14.761  14.642  14.523  14.404
       14.285  14.166  14.047
   2   16.071  15.952  15.833  15.714  15.595  15.476  15.357  15.238  15.119  15.000  14.881  14.761  14.642  14.523  14.404
       14.285  14.166  14.047
   3   16.071  15.952  15.833  15.714  15.595  15.476  15.357  15.238  15.119  15.000  14.881  14.761  14.642  14.523  14.404
       14.285  14.166  14.047
   4   16.071  15.952  15.833  15.714  15.595  15.476  15.357  15.238  15.119  15.000  14.881  14.761  14.642  14.523  14.404
       14.285  14.166  14.047
   5   16.071  15.952  15.833  15.714  15.595  15.476  15.357  15.238  15.119  15.000  14.881  14.761  14.642  14.523  14.404
       14.285  14.166  14.047
   6   16.071  15.952  15.833  15.714  15.595  15.476  15.357  15.238  15.119  15.000  14.881  14.761  14.642  14.523  14.404
       14.285  14.166  14.047
   7   16.071  15.952  15.833  15.714  15.595  15.476  15.357  15.238  15.119  15.000  14.881  14.761  14.642  14.523  14.404
       14.285  14.166  14.047
   8   16.071  15.952  15.833  15.714  15.595  15.476  15.357  15.238  15.119  15.000  14.881  14.761  14.642  14.523  14.404
       14.285  14.166  14.047
   9   16.071  15.952  15.833  15.714  15.595  15.476  15.357  15.238  15.119  15.000  14.881  14.761  14.642  14.523  14.404
       14.285  14.166  14.047
  10   16.071  15.952  15.833  15.714  15.595  15.476  15.357  15.238  15.119  15.000  14.881  14.761  14.642  14.523  14.404
       14.285  14.166  14.047
  11   16.071  15.952  15.833  15.714  15.595  15.476  15.357  15.238  15.119  15.000  14.881  14.761  14.642  14.523  14.404
       14.285  14.166  14.047
  12   16.071  15.952  15.833  15.714  15.595  15.476  15.357  15.238  15.119  15.000  14.881  14.761  14.642  14.523  14.404
       14.285  14.166  14.047
  13   16.071  15.952  15.833  15.714  15.595  15.476  15.357  15.238  15.119  15.000  14.881  14.761  14.642  14.523  14.404
       14.285  14.166  14.047
  14   16.071  15.952  15.833  15.714  15.595  15.476  15.357  15.238  15.119  15.000  14.881  14.761  14.642  14.523  14.404
       14.285  14.166  14.047
  15   16.071  15.952  15.833  15.714  15.595  15.476  15.357  15.238  15.119  15.000  14.881  14.761  14.642  14.523  14.404
       14.285  14.166  14.047


 STRESS PERIOD     LENGTH       TIME STEPS     MULTIPLIER FOR DELT    SS FLAG
 ----------------------------------------------------------------------------
        1        1.0000000          1                    1.000         SS

 STEADY-STATE SIMULATION



 
 #Meandering River - 6 layers, lgr natural gradient - 03/18/2011                 
 THE FREE FORMAT OPTION HAS BEEN SELECTED
 CALCULATE FLOW BETWEEN ADJACENT CONSTANT-HEAD CELLS

 OPENING FILE ON UNIT   99:
 ex3_child.ib                                                                                                                                                                                            



                     BOUNDARY ARRAY FOR LAYER   1
 READING ON UNIT   99 WITH FORMAT: (FREE)              

         1    2    3    4    5    6    7    8    9   10   11   12   13   14   15   16   17   18
 ..............................................................................................
   1    59   59   59   59   59   59   59   59   59   59   59   59   59   59   59   59   59   59
   2    59    1    1    1    1    1    1    1    1    1    1    1    1    1    1    1    1   59
   3    59    1    1    1    1    1    1    1    1    1    1    1    1    1    1    1    1   59
   4    59    1    1    1    1    1    1    1    1    1    1    1    1    1    1    1    1   59
   5    59    1    1    1    1    1    1    1    1    1    1    1    1    1    1    1    1   59
   6    59    1    1    1    1    1    1    1    1    1    1    1    1    1    1    1    1   59
   7    59    1    1    1    1    1    1    1    1    1    1    1    1    1    1    1    1   59
   8    59    1    1    1    1    1    1    1    1    1    1    1    1    1    1    1    1   59
   9    59    1    1    1    1    1    1    1    1    1    1    1    1    1    1    1    1   59
  10    59    1    1    1    1    1    1    1    1    1    1    1    1    1    1    1    1   59
  11    59    1    1    1    1    1    1    1    1    1    1    1    1    1    1    1    1   59
  12    59    1    1    1    1    1    1    1    1    1    1    1    1    1    1    1    1   59
  13    59    1    1    1    1    1    1    1    1    1    1    1    1    1    1    1    1   59
  14    59    1    1    1    1    1    1    1    1    1    1    1    1    1    1    1    1   59
  15    59   59   59   59   59   59   59   59   59   59   59   59   59   59   59   59   59   59

 OPENING FILE ON UNIT   99:
 ex3_child.ib                                                                                                                                                                                            



                     BOUNDARY ARRAY FOR LAYER   2
 READING ON UNIT   99 WITH FORMAT: (FREE)              

         1    2    3    4    5    6    7    8    9   10   11   12   13   14   15   16   17   18
 ..............................................................................................
   1    59   59   59   59   59   59   59   59   59   59   59   59   59   59   59   59   59   59
   2    59    1    1    1    1    1    1    1    1    1    1    1    1    1    1    1    1   59
   3    59    1    1    1    1    1    1    1    1    1    1    1    1    1    1    1    1   59
   4    59    1    1    1    1    1    1    1    1    1    1    1    1    1    1    1    1   59
   5    59    1    1    1    1    1    1    1    1    1    1    1    1    1    1    1    1   59
   6    59    1    1    1    1    1    1    1    1    1    1    1    1    1    1    1    1   59
   7    59    1    1    1    1    1    1    1    1    1    1    1    1    1    1    1    1   59
   8    59    1    1    1    1    1    1    1    1    1    1    1    1    1    1    1    1   59
   9    59    1    1    1    1    1    1    1    1    1    1    1    1    1    1    1    1   59
  10    59    1    1    1    1    1    1    1    1    1    1    1    1    1    1    1    1   59
  11    59    1    1    1    1    1    1    1    1    1    1    1    1    1    1    1    1   59
  12    59    1    1    1    1    1    1    1    1    1    1    1    1    1    1    1    1   59
  13    59    1    1    1    1    1    1    1    1    1    1    1    1    1    1    1    1   59
  14    59    1    1    1    1    1    1    1    1    1    1    1    1    1    1    1    1   59
  15    59   59   59   59   59   59   59   59   59   59   59   59   59   59   59   59   59   59

 OPENING FILE ON UNIT   99:
 ex3_child.ib                                                                                                                                                                                            



                     BOUNDARY ARRAY FOR LAYER   3
 READING ON UNIT   99 WITH FORMAT: (FREE)              

         1    2    3    4    5    6    7    8    9   10   11   12   13   14   15   16   17   18
 ..............................................................................................
   1    59   59   59   59   59   59   59   59   59   59   59   59   59   59   59   59   59   59
   2    59    1    1    1    1    1    1    1    1    1    1    1    1    1    1    1    1   59
   3    59    1    1    1    1    1    1    1    1    1    1    1    1    1    1    1    1   59
   4    59    1    1    1    1    1    1    1    1    1    1    1    1    1    1    1    1   59
   5    59    1    1    1    1    1    1    1    1    1    1    1    1    1    1    1    1   59
   6    59    1    1    1    1    1    1    1    1    1    1    1    1    1    1    1    1   59
   7    59    1    1    1    1    1    1    1    1    1    1    1    1    1    1    1    1   59
   8    59    1    1    1    1    1    1    1    1    1    1    1    1    1    1    1    1   59
   9    59    1    1    1    1    1    1    1    1    1    1    1    1    1    1    1    1   59
  10    59    1    1    1    1    1    1    1    1    1    1    1    1    1    1    1    1   59
  11    59    1    1    1    1    1    1    1    1    1    1    1    1    1    1    1    1   59
  12    59    1    1    1    1    1    1    1    1    1    1    1    1    1    1    1    1   59
  13    59    1    1    1    1    1    1    1    1    1    1    1    1    1    1    1    1   59
  14    59    1    1    1    1    1    1    1    1    1    1    1    1    1    1    1    1   59
  15    59   59   59   59   59   59   59   59   59   59   59   59   59   59   59   59   59   59

 OPENING FILE ON UNIT   99:
 ex3_child.ib                                                                                                                                                                                            



                     BOUNDARY ARRAY FOR LAYER   4
 READING ON UNIT   99 WITH FORMAT: (FREE)              

         1    2    3    4    5    6    7    8    9   10   11   12   13   14   15   16   17   18
 ..............................................................................................
   1    59   59   59   59   59   59   59   59   59   59   59   59   59   59   59   59   59   59
   2    59    1    1    1    1    1    1    1    1    1    1    1    1    1    1    1    1   59
   3    59    1    1    1    1    1    1    1    1    1    1    1    1    1    1    1    1   59
   4    59    1    1    1    1    1    1    1    1    1    1    1    1    1    1    1    1   59
   5    59    1    1    1    1    1    1    1    1    1    1    1    1    1    1    1    1   59
   6    59    1    1    1    1    1    1    1    1    1    1    1    1    1    1    1    1   59
   7    59    1    1    1    1    1    1    1    1    1    1    1    1    1    1    1    1   59
   8    59    1    1    1    1    1    1    1    1    1    1    1    1    1    1    1    1   59
   9    59    1    1    1    1    1    1    1    1    1    1    1    1    1    1    1    1   59
  10    59    1    1    1    1    1    1    1    1    1    1    1    1    1    1    1    1   59
  11    59    1    1    1    1    1    1    1    1    1    1    1    1    1    1    1    1   59
  12    59    1    1    1    1    1    1    1    1    1    1    1    1    1    1    1    1   59
  13    59    1    1    1    1    1    1    1    1    1    1    1    1    1    1    1    1   59
  14    59    1    1    1    1    1    1    1    1    1    1    1    1    1    1    1    1   59
  15    59   59   59   59   59   59   59   59   59   59   59   59   59   59   59   59   59   59

 OPENING FILE ON UNIT   99:
 ex3_child.ib                                                                                                                                                                                            



                     BOUNDARY ARRAY FOR LAYER   5
 READING ON UNIT   99 WITH FORMAT: (FREE)              

         1    2    3    4    5    6    7    8    9   10   11   12   13   14   15   16   17   18
 ..............................................................................................
   1    59   59   59   59   59   59   59   59   59   59   59   59   59   59   59   59   59   59
   2    59    1    1    1    1    1    1    1    1    1    1    1    1    1    1    1    1   59
   3    59    1    1    1    1    1    1    1    1    1    1    1    1    1    1    1    1   59
   4    59    1    1    1    1    1    1    1    1    1    1    1    1    1    1    1    1   59
   5    59    1    1    1    1    1    1    1    1    1    1    1    1    1    1    1    1   59
   6    59    1    1    1    1    1    1    1    1    1    1    1    1    1    1    1    1   59
   7    59    1    1    1    1    1    1    1    1    1    1    1    1    1    1    1    1   59
   8    59    1    1    1    1    1    1    1    1    1    1    1    1    1    1    1    1   59
   9    59    1    1    1    1    1    1    1    1    1    1    1    1    1    1    1    1   59
  10    59    1    1    1    1    1    1    1    1    1    1    1    1    1    1    1    1   59
  11    59    1    1    1    1    1    1    1    1    1    1    1    1    1    1    1    1   59
  12    59    1    1    1    1    1    1    1    1    1    1    1    1    1    1    1    1   59
  13    59    1    1    1    1    1    1    1    1    1    1    1    1    1    1    1    1   59
  14    59    1    1    1    1    1    1    1    1    1    1    1    1    1    1    1    1   59
  15    59   59   59   59   59   59   59   59   59   59   59   59   59   59   59   59   59   59

           BOUNDARY ARRAY =             59 FOR LAYER   6

 AQUIFER HEAD WILL BE SET TO  -333.00     AT ALL NO-FLOW NODES (IBOUND=0).

             INITIAL HEAD =   47.0000     FOR LAYER   1

             INITIAL HEAD =   47.0000     FOR LAYER   2

             INITIAL HEAD =   47.0000     FOR LAYER   3

             INITIAL HEAD =   47.0000     FOR LAYER   4

             INITIAL HEAD =   47.0000     FOR LAYER   5

             INITIAL HEAD =   47.0000     FOR LAYER   6

 OUTPUT CONTROL IS SPECIFIED ONLY AT TIME STEPS FOR WHICH OUTPUT IS DESIRED
 HEAD PRINT FORMAT CODE IS   6    DRAWDOWN PRINT FORMAT CODE IS   0
 HEADS WILL BE SAVED ON UNIT   31    DRAWDOWNS WILL BE SAVED ON UNIT    0

 LGR2 -- LOCAL GRID REFINEMENT, VERSION 2.0, 06/25/2013
        INPUT READ FOR MODEL  2 DEFINED BY NAME FILE ex3_child.nam

 LOCAL GRID REFINEMENT IS ACTIVE FOR CHILD ONLY
               STARTING HEADS FROM PARENT WILL BE USED: ISHFLG =   1
               VALUE IN IBOUND INDICATING BOUNDARY INTERFACE =   59
               BOUNDARY HEADS WILL BE SAVED ON UNIT  80
               BOUNDARY FLUXES WILL BE SAVED ON UNIT  81
               MAX NUMBER OF LGR ITERATIONS = 15
               LGR ITERATION RESULTS NOT WRITTEN: IOUTLGR =   0

               WEIGHTING FACTORS FOR RELAXATION
               RELAXH(HEAD) RELAXF(FLUX)
               -------------------------
               0.400E+00      0.400E+00

               CLOSURE CRITERIA FOR LGR ITERATIONS
               HCLOSELGR       FCLOSELGR
               -------------------------
               5.000E-03      5.000E-02

               STARTING LAYER, ROW, COLUMN=   1,   7,   3
               ENDING LAYER, ROW, COLUMN=     2,  11,   8
               NCPP: NUMBER OF CHILD CELLS PER WIDTH OF PARENT CELL= 3
               NCPPL: NUMBER OF CHILD LAYERS IN LAYER  1 OF PARENT = 3
               NCPPL: NUMBER OF CHILD LAYERS IN LAYER  2 OF PARENT = 3

 BCF -- BLOCK-CENTERED FLOW PACKAGE, VERSION 7, 5/2/2005
         INPUT READ FROM UNIT 21
 STEADY-STATE SIMULATION
 CELL-BY-CELL FLOWS WILL BE SAVED ON UNIT 41
 HEAD AT CELLS THAT CONVERT TO DRY=  -888.00    
 WETTING CAPABILITY IS NOT ACTIVE
      LAYER  LAYER-TYPE CODE     INTERBLOCK T
      --------------------------------------------
         1            1          0 -- HARMONIC    
         2            3          0 -- HARMONIC    
         3            3          0 -- HARMONIC    
         4            3          0 -- HARMONIC    
         5            3          0 -- HARMONIC    
         6            3          0 -- HARMONIC    

 COLUMN TO ROW ANISOTROPY =  1.000000    

    HYD. COND. ALONG ROWS =  1.000000     FOR LAYER   1

 VERT HYD COND /THICKNESS =  0.180000     FOR LAYER   1

    HYD. COND. ALONG ROWS =  1.000000     FOR LAYER   2

 VERT HYD COND /THICKNESS =  0.180000     FOR LAYER   2

    HYD. COND. ALONG ROWS =  1.000000     FOR LAYER   3

 VERT HYD COND /THICKNESS =  0.180000     FOR LAYER   3

    HYD. COND. ALONG ROWS =  1.000000     FOR LAYER   4

 VERT HYD COND /THICKNESS =  0.180000     FOR LAYER   4

    HYD. COND. ALONG ROWS =  1.000000     FOR LAYER   5

 VERT HYD COND /THICKNESS =  0.180000     FOR LAYER   5

    HYD. COND. ALONG ROWS =  1.000000     FOR LAYER   6

 RIV -- RIVER PACKAGE, VERSION 7, 5/2/2005 INPUT READ FROM UNIT   25
 No named parameters
 MAXIMUM OF     89 ACTIVE RIVER REACHES AT ONE TIME
 CELL-BY-CELL FLOWS WILL BE PRINTED WHEN ICBCFL NOT 0
 AUXILIARY RIVER VARIABLE: IFACE           
 AUXILIARY RIVER VARIABLE: CONDFACT        
 AUXILIARY RIVER VARIABLE: CELLGRP         


     0 River parameters

 PCG -- CONJUGATE-GRADIENT SOLUTION PACKAGE, VERSION 7, 5/2/2005
 MAXIMUM OF     25 CALLS OF SOLUTION ROUTINE
 MAXIMUM OF    500 INTERNAL ITERATIONS PER CALL TO SOLUTION ROUTINE
 MATRIX PRECONDITIONING TYPE :    1



                                    SOLUTION BY THE CONJUGATE-GRADIENT METHOD
                                   -------------------------------------------
                    MAXIMUM NUMBER OF CALLS TO PCG ROUTINE =       25
                        MAXIMUM ITERATIONS PER CALL TO PCG =      500
                               MATRIX PRECONDITIONING TYPE =        1
        RELAXATION FACTOR (ONLY USED WITH PRECOND. TYPE 1) =    0.10000E+01
 PARAMETER OF POLYNOMIAL PRECOND. = 2 (2) OR IS CALCULATED :        0
                         HEAD CHANGE CRITERION FOR CLOSURE =    0.10000E-03
                     RESIDUAL CHANGE CRITERION FOR CLOSURE =    0.10000E-03
            PCG HEAD AND RESIDUAL CHANGE PRINTOUT INTERVAL =      999
     PRINTING FROM SOLVER IS LIMITED(1) OR SUPPRESSED (>1) =        1
                            STEADY-STATE DAMPING PARAMETER =    0.10000E+01
                               TRANSIENT DAMPING PARAMETER =    0.10000E+01
1
                            STRESS PERIOD NO.    1, LENGTH =  1.0000000    
                            -----------------------------------------------

                              NUMBER OF TIME STEPS =     1

                               MULTIPLIER FOR DELT =     1.000

                            INITIAL TIME STEP SIZE =  1.0000000    

 REACH NO.  LAYER   ROW   COL     STAGE      CONDUCTANCE     BOTTOM EL.         IFACE           CONDFACT        CELLGRP         
 -------------------------------------------------------------------------------------------------------------------------------
      1      1      1      4       49.14           49.28           48.64           6.000           24.64           4.000    
      2      1      2      4       49.10           63.93           48.60           6.000           31.97          10.000    
      3      1      2      3       49.06           52.75           48.56           6.000           26.38           9.000    
      4      1      3      3       49.03           23.55           48.53           6.000           11.77           14.00    
      5      1      3      2       49.00           45.84           48.50           6.000           22.92           13.00    
      6      1      4      2       48.97           49.90           48.47           6.000           24.95           18.00    
      7      1      5      2       48.93           47.76           48.43           6.000           23.88           24.00    
      8      1      6      2       48.90           46.38           48.40           6.000           23.19           30.00    
      9      1      7      2       48.86           49.52           48.36           6.000           24.76           36.00    
     10      1      8      2       48.83           49.82           48.33           6.000           24.91           47.00    
     11      1      8      3       48.78           68.73           48.28           6.000           34.37           48.00    
     12      1      8      4       48.73           75.67           48.23           6.000           37.83           49.00    
     13      1      8      5       48.70           13.48           48.20           6.000           6.740           50.00    
     14      1      7      5       48.67           50.30           48.17           6.000           25.15           37.00    
     15      1      6      5       48.64           45.78           48.14           6.000           22.89           31.00    
     16      1      5      5       48.60           49.26           48.10           6.000           24.63           25.00    
     17      1      4      5       48.57           48.21           48.07           6.000           24.10           19.00    
     18      1      4      6       48.52           71.75           48.02           6.000           35.87           20.00    
     19      1      4      7       48.48           40.20           47.98           6.000           20.10           21.00    
     20      1      5      7       48.44           71.27           47.94           6.000           35.64           26.00    
     21      1      5      8       48.39           78.55           47.89           6.000           39.27           27.00    
     22      1      6      8       48.35           15.70           47.85           6.000           7.848           32.00    
     23      1      6      9       48.34           30.96           47.84           6.000           15.48           33.00    
     24      1      7      9       48.31           45.77           47.81           6.000           22.88           38.00    
     25      1      8      9       48.29           13.23           47.79           6.000           6.613           53.00    
     26      1      8      8       48.26           63.99           47.76           6.000           32.00           51.00    
     27      1      9      8       48.23           18.88           47.73           6.000           9.439           61.00    
     28      1      9      7       48.19           70.77           47.69           6.000           35.39           60.00    
     29      1      9      6       48.14           70.94           47.64           6.000           35.47           59.00    
     30      1      9      5       48.10           47.00           47.60           6.000           23.50           58.00    
     31      1     10      5       48.07           36.83           47.57           6.000           18.41           66.00    
     32      1     10      4       48.05           24.03           47.55           6.000           12.02           65.00    
     33      1     11      4       48.02           49.38           47.52           6.000           24.69           71.00    
     34      1     12      4       47.98           46.21           47.48           6.000           23.11           76.00    
     35      1     13      4       47.95           47.40           47.45           6.000           23.70           81.00    
     36      1     14      4       47.92           39.19           47.42           6.000           19.60           86.00    
     37      1     14      5       47.90           11.51           47.40           6.000           5.756           87.00    
     38      1     15      5       47.87           68.85           47.37           6.000           34.42           93.00    
     39      1     15      6       47.82           72.26           47.32           6.000           36.13           94.00    
     40      1     15      7       47.79           14.88           47.29           6.000           7.442           95.00    
     41      1     14      7       47.75           71.13           47.25           6.000           35.57           88.00    
     42      1     14      8       47.73           3.232           47.23           6.000           1.616           89.00    
     43      1     13      8       47.70           64.63           47.20           6.000           32.32           82.00    
     44      1     12      8       47.66           40.26           47.16           6.000           20.13           77.00    
     45      1     12      9       47.64           13.05           47.14           6.000           6.524           78.00    
     46      1     11      9       47.62           51.15           47.12           6.000           25.58           72.00    
     47      1     10      9       47.58           51.15           47.08           6.000           25.58           67.00    
     48      1      9      9       47.55           48.61           47.05           6.000           24.30           62.00    
     49      1      8      9       47.53           3.832           47.03           6.000           1.916           52.00    
     50      1      8     10       47.51           43.86           47.01           6.000           21.93           54.00    
     51      1      7     10       47.48           47.69           46.98           6.000           23.85           39.00    
     52      1      6     10       47.44           46.86           46.94           6.000           23.43           34.00    
     53      1      5     10       47.41           46.50           46.91           6.000           23.25           28.00    
     54      1      4     10       47.37           46.91           46.87           6.000           23.46           22.00    
     55      1      3     10       47.34           30.34           46.84           6.000           15.17           15.00    
     56      1      3     11       47.33           22.39           46.83           6.000           11.20           16.00    
     57      1      2     11       47.29           69.86           46.79           6.000           34.93           11.00    
     58      1      1     11       47.26           8.899           46.76           6.000           4.449           5.000    
     59      1      1     12       47.23           72.07           46.73           6.000           36.03           6.000    
     60      1      1     13       47.18           76.73           46.68           6.000           38.37           7.000    
     61      1      1     14       47.15           1.753           46.65           6.000          0.8767           8.000    
     62      1      2     14       47.13           60.12           46.63           6.000           30.06           12.00    
     63      1      3     14       47.09           50.70           46.59           6.000           25.35           17.00    
     64      1      4     14       47.05           47.11           46.55           6.000           23.55           23.00    
     65      1      5     14       47.02           49.38           46.52           6.000           24.69           29.00    
     66      1      6     14       46.98           52.15           46.48           6.000           26.07           35.00    
     67      1      7     14       46.95           27.09           46.45           6.000           13.54           41.00    
     68      1      7     13       46.93           26.61           46.43           6.000           13.30           40.00    
     69      1      8     13       46.90           56.29           46.40           6.000           28.15           55.00    
     70      1      9     13       46.86           48.75           46.36           6.000           24.37           63.00    
     71      1     10     13       46.83           46.43           46.33           6.000           23.21           68.00    
     72      1     11     13       46.79           46.60           46.29           6.000           23.30           73.00    
     73      1     12     13       46.76           49.26           46.26           6.000           24.63           79.00    
     74      1     13     13       46.72           55.43           46.22           6.000           27.72           83.00    
     75      1     13     14       46.70           3.529           46.20           6.000           1.765           84.00    
     76      1     14     14       46.67           79.10           46.17           6.000           39.55           90.00    
     77      1     14     15       46.61           74.29           46.11           6.000           37.14           91.00    
     78      1     14     16       46.57           29.89           46.07           6.000           14.94           92.00    
     79      1     13     16       46.54           49.70           46.04           6.000           24.85           85.00    
     80      1     12     16       46.51           47.47           46.01           6.000           23.74           80.00    
     81      1     11     16       46.48           31.94           45.98           6.000           15.97           74.00    
     82      1     11     17       46.46           21.27           45.96           6.000           10.63           75.00    
     83      1     10     17       46.44           22.85           45.94           6.000           11.43           70.00    
     84      1     10     16       46.42           40.02           45.92           6.000           20.01           69.00    
     85      1      9     16       46.39           49.28           45.89           6.000           24.64           64.00    
     86      1      8     16       46.35           55.92           45.85           6.000           27.96           56.00    
     87      1      7     16       46.32           9.291           45.82           6.000           4.645           42.00    
     88      1      7     17       46.29           73.44           45.79           6.000           36.72           43.00    
     89      1      7     18       46.24           68.94           45.74           6.000           34.47           44.00    

     89 RIVER REACHES
 
 SOLVING FOR HEAD 


     4 CALLS TO PCG ROUTINE FOR TIME STEP   1 IN STRESS PERIOD    1
    22 TOTAL ITERATIONS


     3 CALLS TO PCG ROUTINE FOR TIME STEP   1 IN STRESS PERIOD    1
    16 TOTAL ITERATIONS


     3 CALLS TO PCG ROUTINE FOR TIME STEP   1 IN STRESS PERIOD    1
    15 TOTAL ITERATIONS


     4 CALLS TO PCG ROUTINE FOR TIME STEP   1 IN STRESS PERIOD    1
    16 TOTAL ITERATIONS


     3 CALLS TO PCG ROUTINE FOR TIME STEP   1 IN STRESS PERIOD    1
    13 TOTAL ITERATIONS


     4 CALLS TO PCG ROUTINE FOR TIME STEP   1 IN STRESS PERIOD    1
    14 TOTAL ITERATIONS


     4 CALLS TO PCG ROUTINE FOR TIME STEP   1 IN STRESS PERIOD    1
    13 TOTAL ITERATIONS


     4 CALLS TO PCG ROUTINE FOR TIME STEP   1 IN STRESS PERIOD    1
    12 TOTAL ITERATIONS


     4 CALLS TO PCG ROUTINE FOR TIME STEP   1 IN STRESS PERIOD    1
    11 TOTAL ITERATIONS


     4 CALLS TO PCG ROUTINE FOR TIME STEP   1 IN STRESS PERIOD    1
    11 TOTAL ITERATIONS

 OUTPUT CONTROL FOR STRESS PERIOD    1   TIME STEP    1
    PRINT HEAD FOR ALL LAYERS
    SAVE HEAD FOR ALL LAYERS
    PRINT BUDGET
    SAVE BUDGET
 UBUDSV SAVING "   CONSTANT HEAD" ON UNIT 41 AT TIME STEP  1, STRESS PERIOD    1
 UBUDSV SAVING "FLOW RIGHT FACE " ON UNIT 41 AT TIME STEP  1, STRESS PERIOD    1
 UBUDSV SAVING "FLOW FRONT FACE " ON UNIT 41 AT TIME STEP  1, STRESS PERIOD    1
 UBUDSV SAVING "FLOW LOWER FACE " ON UNIT 41 AT TIME STEP  1, STRESS PERIOD    1

    RIVER LEAKAGE   PERIOD    1   STEP   1
 REACH      1   LAYER   1   ROW     1   COL     4   RATE    4.26837    
 REACH      2   LAYER   1   ROW     2   COL     4   RATE    5.56469    
 REACH      3   LAYER   1   ROW     2   COL     3   RATE  -4.320845E-02
 REACH      4   LAYER   1   ROW     3   COL     3   RATE   0.650541    
 REACH      5   LAYER   1   ROW     3   COL     2   RATE   -2.28999    
 REACH      6   LAYER   1   ROW     4   COL     2   RATE   -1.81048    
 REACH      7   LAYER   1   ROW     5   COL     2   RATE   -1.61807    
 REACH      8   LAYER   1   ROW     6   COL     2   RATE   -1.53665    
 REACH      9   LAYER   1   ROW     7   COL     2   RATE   -1.53627    
 REACH     10   LAYER   1   ROW     8   COL     2   RATE   -1.78084    
 REACH     11   LAYER   1   ROW     8   COL     3   RATE   0.958133    
 REACH     12   LAYER   1   ROW     8   COL     4   RATE    5.61736    
 REACH     13   LAYER   1   ROW     8   COL     5   RATE    2.97769    
 REACH     14   LAYER   1   ROW     7   COL     5   RATE    4.52523    
 REACH     15   LAYER   1   ROW     6   COL     5   RATE    1.66273    
 REACH     16   LAYER   1   ROW     5   COL     5   RATE  -0.264170    
 REACH     17   LAYER   1   ROW     4   COL     5   RATE   -2.67394    
 REACH     18   LAYER   1   ROW     4   COL     6   RATE  -0.150735    
 REACH     19   LAYER   1   ROW     4   COL     7   RATE    3.25455    
 REACH     20   LAYER   1   ROW     5   COL     7   RATE    3.83912    
 REACH     21   LAYER   1   ROW     5   COL     8   RATE    7.73018    
 REACH     22   LAYER   1   ROW     6   COL     8   RATE    2.31751    
 REACH     23   LAYER   1   ROW     6   COL     9   RATE    7.97749    
 REACH     24   LAYER   1   ROW     7   COL     9   RATE    10.4034    
 REACH     25   LAYER   1   ROW     8   COL     9   RATE    4.89156    
 REACH     26   LAYER   1   ROW     8   COL     8   RATE    6.80455    
 REACH     27   LAYER   1   ROW     9   COL     8   RATE    3.68044    
 REACH     28   LAYER   1   ROW     9   COL     7   RATE    3.42506    
 REACH     29   LAYER   1   ROW     9   COL     6   RATE   -2.98076    
 REACH     30   LAYER   1   ROW     9   COL     5   RATE   -6.69790    
 REACH     31   LAYER   1   ROW    10   COL     5   RATE   -4.01166    
 REACH     32   LAYER   1   ROW    10   COL     4   RATE   -5.81094    
 REACH     33   LAYER   1   ROW    11   COL     4   RATE   -7.94509    
 REACH     34   LAYER   1   ROW    12   COL     4   RATE   -7.25155    
 REACH     35   LAYER   1   ROW    13   COL     4   RATE   -7.68815    
 REACH     36   LAYER   1   ROW    14   COL     4   RATE   -7.95259    
 REACH     37   LAYER   1   ROW    14   COL     5   RATE   -1.82804    
 REACH     38   LAYER   1   ROW    15   COL     5   RATE   -8.14535    
 REACH     39   LAYER   1   ROW    15   COL     6   RATE   -6.26434    
 REACH     40   LAYER   1   ROW    15   COL     7   RATE  -0.649080    
 REACH     41   LAYER   1   ROW    14   COL     7   RATE   -3.41490    
 REACH     42   LAYER   1   ROW    14   COL     8   RATE  -3.197537E-02
 REACH     43   LAYER   1   ROW    13   COL     8   RATE   -1.58837    
 REACH     44   LAYER   1   ROW    12   COL     8   RATE   -2.99145    
 REACH     45   LAYER   1   ROW    12   COL     9   RATE   8.586202E-03
 REACH     46   LAYER   1   ROW    11   COL     9   RATE   -1.29651    
 REACH     47   LAYER   1   ROW    10   COL     9   RATE   -3.39468    
 REACH     48   LAYER   1   ROW     9   COL     9   RATE   -6.84378    
 REACH     49   LAYER   1   ROW     8   COL     9   RATE   -1.48743    
 REACH     50   LAYER   1   ROW     8   COL    10   RATE   -1.71437    
 REACH     51   LAYER   1   ROW     7   COL    10   RATE   -3.57758    
 REACH     52   LAYER   1   ROW     6   COL    10   RATE   -4.71388    
 REACH     53   LAYER   1   ROW     5   COL    10   RATE   -5.40759    
 REACH     54   LAYER   1   ROW     4   COL    10   RATE   -6.59457    
 REACH     55   LAYER   1   ROW     3   COL    10   RATE   -6.32246    
 REACH     56   LAYER   1   ROW     3   COL    11   RATE   -2.30306    
 REACH     57   LAYER   1   ROW     2   COL    11   RATE   -7.43621    
 REACH     58   LAYER   1   ROW     1   COL    11   RATE   -2.23159    
 REACH     59   LAYER   1   ROW     1   COL    12   RATE   -6.88407    
 REACH     60   LAYER   1   ROW     1   COL    13   RATE   -2.92080    
 REACH     61   LAYER   1   ROW     1   COL    14   RATE   1.205542E-03
 REACH     62   LAYER   1   ROW     2   COL    14   RATE   0.294321    
 REACH     63   LAYER   1   ROW     3   COL    14   RATE   3.279013E-02
 REACH     64   LAYER   1   ROW     4   COL    14   RATE   0.100114    
 REACH     65   LAYER   1   ROW     5   COL    14   RATE   0.133003    
 REACH     66   LAYER   1   ROW     6   COL    14   RATE   0.190435    
 REACH     67   LAYER   1   ROW     7   COL    14   RATE   0.467280    
 REACH     68   LAYER   1   ROW     7   COL    13   RATE   -2.31680    
 REACH     69   LAYER   1   ROW     8   COL    13   RATE   -3.33743    
 REACH     70   LAYER   1   ROW     9   COL    13   RATE   -3.21796    
 REACH     71   LAYER   1   ROW    10   COL    13   RATE   -3.36102    
 REACH     72   LAYER   1   ROW    11   COL    13   RATE   -3.76523    
 REACH     73   LAYER   1   ROW    12   COL    13   RATE   -4.56731    
 REACH     74   LAYER   1   ROW    13   COL    13   RATE   -6.57275    
 REACH     75   LAYER   1   ROW    13   COL    14   RATE  -0.354764    
 REACH     76   LAYER   1   ROW    14   COL    14   RATE   -6.08196    
 REACH     77   LAYER   1   ROW    14   COL    15   RATE   -4.43893    
 REACH     78   LAYER   1   ROW    14   COL    16   RATE  -0.894549    
 REACH     79   LAYER   1   ROW    13   COL    16   RATE   -1.46306    
 REACH     80   LAYER   1   ROW    12   COL    16   RATE   -1.90493    
 REACH     81   LAYER   1   ROW    11   COL    16   RATE   -1.71197    
 REACH     82   LAYER   1   ROW    11   COL    17   RATE  -0.388130    
 REACH     83   LAYER   1   ROW    10   COL    17   RATE  -0.440880    
 REACH     84   LAYER   1   ROW    10   COL    16   RATE   -3.14610    
 REACH     85   LAYER   1   ROW     9   COL    16   RATE   -4.26288    
 REACH     86   LAYER   1   ROW     8   COL    16   RATE   -6.31435    
 REACH     87   LAYER   1   ROW     7   COL    16   RATE   -2.13782    
 REACH     88   LAYER   1   ROW     7   COL    17   RATE   -6.57835    
 REACH     89   LAYER   1   ROW     7   COL    18   RATE   -5.17680    
1
              HEAD IN LAYER   1 AT END OF TIME STEP   1 IN STRESS PERIOD    1
  ---------------------------------------------------------------------------

           1       2       3       4       5       6       7       8       9      10      11      12      13      14      15
          16      17      18
 ...........................................................................................................................
   1  49.2680 49.1831 49.1073 49.0540 48.8709 48.6897 48.4281 48.2347 48.0384 47.7532 47.5136 47.3287 47.2167 47.1492 47.0400
      46.8818 46.7708 46.6696
   2  49.2379 49.1333 49.0572 49.0121 48.7986 48.6301 48.3964 48.2073 47.9964 47.6843 47.3982 47.3679 47.2242 47.1223 47.0038
      46.8468 46.7328 46.6264
   3  49.2011 49.0529 49.0007 48.8716 48.7203 48.5762 48.3778 48.1897 47.9586 47.5532 47.4284 47.3565 47.2025 47.0859 46.9647
      46.8076 46.6913 46.5849
   4  49.1612 49.0041 48.9328 48.7897 48.6231 48.5258 48.4017 48.1970 47.9445 47.5138 47.4499 47.3368 47.1715 47.0486 46.9220
      46.7614 46.6430 46.5388
   5  49.1284 48.9659 48.8835 48.7375 48.6088 48.4877 48.3879 48.2884 47.9686 47.5238 47.4443 47.3148 47.1384 47.0126 46.8810
      46.7135 46.5923 46.4940
   6  49.0986 48.9306 48.8412 48.6958 48.6019 48.4392 48.2893 48.2047 48.0776 47.5423 47.4330 47.2887 47.0960 46.9744 46.8371
      46.6542 46.5247 46.4351
   7  49.0663 48.8934 48.7993 48.6558 48.5835 48.3790 48.2242 48.1320 48.0798 47.5513 47.4153 47.2558 47.0164 46.9318 46.7877
      46.5539 46.3830 46.3163
   8  49.0402 48.8617 48.7685 48.6553 48.4760 48.3030 48.1756 48.1508 47.9156 47.5490 47.3956 47.2263 46.9582 46.8878 46.7482
      46.4606 46.4426 46.3667
   9  49.0179 48.8525 48.6970 48.4782 48.2412 48.1840 48.1455 48.0318 47.6874 47.5320 47.3737 47.2010 46.9265 46.8596 46.7281
      46.4727 46.4555 46.3828
  10  48.9920 48.8195 48.6278 48.2874 48.1769 48.1463 48.0284 47.8934 47.6496 47.5034 47.3506 47.1776 46.8979 46.8384 46.7180
      46.4976 46.4613 46.3975
  11  48.9713 48.7899 48.5772 48.1796 48.1795 48.1025 47.9614 47.8203 47.6460 47.4838 47.3338 47.1607 46.8723 46.8241 46.7154
      46.5313 46.4764 46.4119
  12  48.9552 48.7669 48.5451 48.1406 48.1494 48.0629 47.9110 47.7381 47.6436 47.4710 47.3235 47.1517 46.8490 46.8135 46.7151
      46.5469 46.4986 46.4271
  13  48.9391 48.7484 48.5255 48.1116 48.1127 48.0244 47.8681 47.7268 47.6318 47.4613 47.3190 47.1531 46.8365 46.7969 46.7116
      46.5719 46.5201 46.4456
  14  48.9225 48.7369 48.5245 48.1205 48.0579 47.9848 47.8024 47.7370 47.6275 47.4562 47.3214 47.1723 46.9480 46.7429 46.6696
      46.6015 46.5424 46.4654
  15  48.9012 48.7303 48.5425 48.2539 47.9879 47.9045 47.8295 47.7429 47.6285 47.4551 47.3279 47.1934 46.9980 46.8591 46.7658
      46.6482 46.5673 46.4896
1
              HEAD IN LAYER   2 AT END OF TIME STEP   1 IN STRESS PERIOD    1
  ---------------------------------------------------------------------------

           1       2       3       4       5       6       7       8       9      10      11      12      13      14      15
          16      17      18
 ...........................................................................................................................
   1  49.2695 49.1845 49.1088 49.0298 48.8722 48.6939 48.4261 48.2355 48.0424 47.7534 47.5311 47.3698 47.2331 47.1506 47.0426
      46.8813 46.7717 46.6700
   2  49.2395 49.1342 49.0570 48.9827 48.7977 48.6314 48.3945 48.2072 47.9984 47.6866 47.4376 47.3731 47.2248 47.1210 47.0048
      46.8460 46.7328 46.6251
   3  49.2035 49.0648 48.9987 48.8687 48.7211 48.5773 48.3751 48.1892 47.9611 47.5867 47.4440 47.3587 47.2021 47.0858 46.9657
      46.8070 46.6914 46.5840
   4  49.1630 49.0142 48.9335 48.7886 48.6357 48.5268 48.3827 48.1934 47.9463 47.5495 47.4524 47.3380 47.1706 47.0478 46.9227
      46.7605 46.6428 46.5375
   5  49.1306 48.9752 48.8847 48.7365 48.6100 48.4877 48.3654 48.2488 47.9664 47.5531 47.4458 47.3160 47.1377 47.0119 46.8819
      46.7130 46.5926 46.4934
   6  49.1011 48.9397 48.8426 48.6944 48.5925 48.4395 48.2858 48.1886 48.0363 47.5660 47.4341 47.2901 47.0962 46.9736 46.8384
      46.6549 46.5273 46.4368
   7  49.0684 48.9020 48.7998 48.6519 48.5596 48.3785 48.2218 48.1261 48.0263 47.5679 47.4159 47.2573 47.0283 46.9298 46.7891
      46.5671 46.4178 46.3435
   8  49.0425 48.8710 48.7645 48.6266 48.4612 48.3041 48.1721 48.1151 47.8973 47.5568 47.3960 47.2282 46.9763 46.8885 46.7504
      46.4946 46.4461 46.3678
   9  49.0202 48.8535 48.6983 48.4788 48.2753 48.2003 48.1276 48.0119 47.7214 47.5326 47.3741 47.2030 46.9446 46.8607 46.7302
      46.4973 46.4570 46.3823
  10  48.9939 48.8197 48.6301 48.3187 48.2001 48.1486 48.0261 47.8923 47.6696 47.5030 47.3507 47.1794 46.9169 46.8393 46.7197
      46.5155 46.4646 46.3971
  11  48.9734 48.7902 48.5802 48.2233 48.1829 48.1037 47.9605 47.8214 47.6549 47.4832 47.3339 47.1627 46.8936 46.8252 46.7169
      46.5415 46.4791 46.4112
  12  48.9575 48.7674 48.5483 48.1821 48.1519 48.0643 47.9110 47.7539 47.6457 47.4702 47.3237 47.1539 46.8752 46.8151 46.7167
      46.5574 46.4991 46.4262
  13  48.9414 48.7487 48.5286 48.1548 48.1156 48.0260 47.8688 47.7359 47.6331 47.4604 47.3192 47.1553 46.8713 46.8021 46.7146
      46.5801 46.5206 46.4449
  14  48.9248 48.7372 48.5276 48.1629 48.0717 47.9892 47.8193 47.7384 47.6286 47.4552 47.3215 47.1738 46.9503 46.7751 46.6942
      46.6069 46.5427 46.4646
  15  48.9016 48.7304 48.5459 48.2577 48.0341 47.9419 47.8344 47.7436 47.6302 47.4535 47.3282 47.1957 46.9979 46.8626 46.7701
      46.6486 46.5679 46.4898
1
              HEAD IN LAYER   3 AT END OF TIME STEP   1 IN STRESS PERIOD    1
  ---------------------------------------------------------------------------

           1       2       3       4       5       6       7       8       9      10      11      12      13      14      15
          16      17      18
 ...........................................................................................................................
   1  49.2700 49.1864 49.1118 49.0093 48.8733 48.7019 48.4200 48.2365 48.0510 47.7512 47.5475 47.4042 47.2434 47.1527 47.0480
      46.8788 46.7729 46.6717
   2  49.2415 49.1356 49.0572 48.9602 48.7964 48.6339 48.3905 48.2071 48.0027 47.6891 47.4662 47.3815 47.2250 47.1205 47.0070
      46.8442 46.7328 46.6237
   3  49.2068 49.0738 48.9988 48.8642 48.7223 48.5796 48.3704 48.1886 47.9661 47.6103 47.4579 47.3633 47.2012 47.0860 46.9679
      46.8058 46.6917 46.5832
   4  49.1651 49.0218 48.9349 48.7859 48.6435 48.5281 48.3664 48.1883 47.9499 47.5749 47.4562 47.3408 47.1686 47.0471 46.9242
      46.7585 46.6423 46.5356
   5  49.1333 48.9826 48.8869 48.7343 48.6107 48.4883 48.3465 48.2203 47.9648 47.5738 47.4481 47.3187 47.1362 47.0114 46.8839
      46.7119 46.5933 46.4931
   6  49.1045 48.9472 48.8453 48.6918 48.5853 48.4406 48.2799 48.1742 48.0082 47.5816 47.4360 47.2932 47.0961 46.9735 46.8412
      46.6560 46.5316 46.4401
   7  49.0707 48.9085 48.8012 48.6455 48.5418 48.3782 48.2169 48.1172 47.9892 47.5772 47.4167 47.2605 47.0358 46.9288 46.7919
      46.5776 46.4424 46.3625
   8  49.0453 48.8777 48.7630 48.6059 48.4514 48.3063 48.1664 48.0891 47.8850 47.5608 47.3967 47.2320 46.9888 46.8897 46.7545
      46.5187 46.4513 46.3699
   9  49.0232 48.8552 48.7013 48.4798 48.2995 48.2135 48.1142 47.9975 47.7455 47.5328 47.3748 47.2072 46.9579 46.8626 46.7344
      46.5158 46.4597 46.3822
  10  48.9959 48.8200 48.6345 48.3411 48.2180 48.1524 48.0219 47.8907 47.6859 47.5018 47.3509 47.1833 46.9306 46.8410 46.7232
      46.5290 46.4679 46.3970
  11  48.9757 48.7908 48.5860 48.2555 48.1882 48.1063 47.9586 47.8231 47.6635 47.4816 47.3342 47.1668 46.9095 46.8271 46.7200
      46.5494 46.4815 46.4106
  12  48.9604 48.7684 48.5547 48.2140 48.1561 48.0674 47.9107 47.7655 47.6498 47.4685 47.3242 47.1583 46.8947 46.8179 46.7200
      46.5649 46.5000 46.4251
  13  48.9440 48.7493 48.5346 48.1872 48.1203 48.0292 47.8694 47.7431 47.6358 47.4584 47.3195 47.1597 46.8955 46.8087 46.7199
      46.5862 46.5214 46.4441
  14  48.9274 48.7378 48.5336 48.1930 48.0850 47.9966 47.8301 47.7405 47.6310 47.4529 47.3217 47.1771 46.9533 46.7980 46.7134
      46.6107 46.5432 46.4635
  15  48.9001 48.7307 48.5537 48.2610 48.0687 47.9730 47.8372 47.7448 47.6346 47.4494 47.3287 47.2012 46.9962 46.8677 46.7780
      46.6479 46.5689 46.4909
1
              HEAD IN LAYER   4 AT END OF TIME STEP   1 IN STRESS PERIOD    1
  ---------------------------------------------------------------------------

           1       2       3       4       5       6       7       8       9      10      11      12      13      14      15
          16      17      18
 ...........................................................................................................................
   1  49.2674 49.1878 49.1166 48.9901 48.8730 48.7153 48.4064 48.2373 48.0657 47.7428 47.5608 47.4342 47.2456 47.1545 47.0568
      46.8725 46.7738 46.6758
   2  49.2425 49.1369 49.0581 48.9421 48.7949 48.6378 48.3845 48.2069 48.0091 47.6903 47.4870 47.3915 47.2241 47.1203 47.0103
      46.8413 46.7328 46.6233
   3  49.2097 49.0806 49.0007 48.8589 48.7238 48.5836 48.3639 48.1880 47.9735 47.6261 47.4699 47.3698 47.1995 47.0865 46.9715
      46.8038 46.6923 46.5839
   4  49.1655 49.0271 48.9370 48.7816 48.6480 48.5299 48.3515 48.1828 47.9553 47.5916 47.4604 47.3450 47.1653 47.0461 46.9266
      46.7552 46.6416 46.5341
   5  49.1350 48.9883 48.8903 48.7308 48.6109 48.4898 48.3298 48.1998 47.9650 47.5871 47.4507 47.3231 47.1335 47.0112 46.8873
      46.7099 46.5942 46.4938
   6  49.1073 48.9534 48.8495 48.6882 48.5802 48.4429 48.2724 48.1619 47.9905 47.5904 47.4381 47.2982 47.0952 46.9740 46.8458
      46.6567 46.5366 46.4455
   7  49.0713 48.9132 48.8034 48.6374 48.5284 48.3784 48.2097 48.1073 47.9646 47.5807 47.4175 47.2652 47.0395 46.9283 46.7961
      46.5849 46.4598 46.3760
   8  49.0467 48.8827 48.7641 48.5903 48.4450 48.3096 48.1592 48.0701 47.8779 47.5612 47.3976 47.2376 46.9965 46.8912 46.7602
      46.5352 46.4570 46.3733
   9  49.0252 48.8573 48.7065 48.4804 48.3171 48.2252 48.1036 47.9876 47.7638 47.5317 47.3759 47.2136 46.9669 46.8650 46.7404
      46.5292 46.4629 46.3830
  10  48.9960 48.8203 48.6407 48.3560 48.2314 48.1570 48.0161 47.8887 47.6995 47.4990 47.3512 47.1889 46.9398 46.8429 46.7282
      46.5386 46.4711 46.3982
  11  48.9765 48.7916 48.5941 48.2782 48.1940 48.1102 47.9554 47.8247 47.6722 47.4786 47.3347 47.1728 46.9203 46.8294 46.7246
      46.5548 46.4838 46.4108
  12  48.9619 48.7697 48.5638 48.2375 48.1615 48.0722 47.9097 47.7743 47.6557 47.4657 47.3249 47.1647 46.9084 46.8213 46.7249
      46.5696 46.5009 46.4245
  13  48.9450 48.7500 48.5430 48.2102 48.1256 48.0339 47.8689 47.7486 47.6397 47.4552 47.3200 47.1659 46.9117 46.8154 46.7268
      46.5902 46.5226 46.4443
  14  48.9284 48.7385 48.5420 48.2133 48.0967 48.0054 47.8362 47.7426 47.6347 47.4493 47.3219 47.1820 46.9553 46.8143 46.7289
      46.6129 46.5437 46.4631
  15  48.8937 48.7311 48.5675 48.2590 48.0934 48.0003 47.8355 47.7461 47.6430 47.4412 47.3291 47.2109 46.9906 46.8727 46.7889
      46.6442 46.5698 46.4942
1
              HEAD IN LAYER   5 AT END OF TIME STEP   1 IN STRESS PERIOD    1
  ---------------------------------------------------------------------------

           1       2       3       4       5       6       7       8       9      10      11      12      13      14      15
          16      17      18
 ...........................................................................................................................
   1  49.2640 49.1880 49.1198 48.9737 48.8706 48.7239 48.3943 48.2372 48.0774 47.7353 47.5699 47.4553 47.2452 47.1554 47.0636
      46.8664 46.7739 46.6794
   2  49.2413 49.1379 49.0598 48.9270 48.7932 48.6428 48.3763 48.2065 48.0176 47.6892 47.5015 47.4022 47.2218 47.1202 47.0148
      46.8372 46.7328 46.6249
   3  49.2104 49.0860 49.0047 48.8531 48.7258 48.5897 48.3559 48.1876 47.9833 47.6350 47.4800 47.3784 47.1970 47.0874 46.9769
      46.8009 46.6935 46.5870
   4  49.1632 49.0303 48.9399 48.7751 48.6497 48.5325 48.3368 48.1776 47.9626 47.6004 47.4641 47.3507 47.1603 47.0449 46.9300
      46.7501 46.6405 46.5345
   5  49.1339 48.9925 48.8950 48.7258 48.6107 48.4928 48.3145 48.1853 47.9681 47.5936 47.4533 47.3292 47.1295 47.0111 46.8922
      46.7067 46.5952 46.4967
   6  49.1074 48.9586 48.8555 48.6837 48.5771 48.4471 48.2636 48.1523 47.9818 47.5936 47.4404 47.3052 47.0931 46.9752 46.8524
      46.6568 46.5419 46.4526
   7  49.0687 48.9160 48.8068 48.6275 48.5179 48.3794 48.2000 48.0975 47.9498 47.5789 47.4180 47.2715 47.0394 46.9277 46.8016
      46.5885 46.4718 46.3872
   8  49.0451 48.8861 48.7676 48.5776 48.4409 48.3142 48.1506 48.0566 47.8758 47.5581 47.3985 47.2452 47.0000 46.8927 46.7674
      46.5452 46.4623 46.3783
   9  49.0242 48.8596 48.7141 48.4803 48.3304 48.2367 48.0947 47.9814 47.7793 47.5287 47.3774 47.2221 46.9720 46.8678 46.7483
      46.5379 46.4663 46.3861
  10  48.9925 48.8201 48.6484 48.3638 48.2407 48.1620 48.0084 47.8863 47.7113 47.4940 47.3513 47.1963 46.9445 46.8448 46.7347
      46.5445 46.4742 46.4011
  11  48.9736 48.7923 48.6043 48.2927 48.1994 48.1155 47.9507 47.8262 47.6813 47.4740 47.3352 47.1807 46.9265 46.8318 46.7306
      46.5578 46.4858 46.4126
  12  48.9599 48.7713 48.5755 48.2538 48.1673 48.0790 47.9077 47.7811 47.6634 47.4614 47.3259 47.1731 46.9168 46.8247 46.7312
      46.5717 46.5018 46.4256
  13  48.9420 48.7505 48.5535 48.2250 48.1307 48.0400 47.8668 47.7526 47.6450 47.4503 47.3206 47.1738 46.9213 46.8216 46.7349
      46.5923 46.5240 46.4463
  14  48.9258 48.7391 48.5523 48.2256 48.1062 48.0149 47.8384 47.7446 47.6396 47.4443 47.3222 47.1885 46.9556 46.8257 46.7417
      46.6133 46.5443 46.4644
  15  48.8874 48.7316 48.5796 48.2575 48.1100 48.0202 47.8337 47.7474 47.6503 47.4341 47.3294 47.2191 46.9855 46.8764 46.7978
      46.6408 46.5701 46.4971
1
              HEAD IN LAYER   6 AT END OF TIME STEP   1 IN STRESS PERIOD    1
  ---------------------------------------------------------------------------

           1       2       3       4       5       6       7       8       9      10      11      12      13      14      15
          16      17      18
 ...........................................................................................................................
   1  49.2579 49.1861 49.1209 48.9585 48.8656 48.7286 48.3821 48.2358 48.0866 47.7266 47.5741 47.4687 47.2414 47.1545 47.0683
      46.8592 46.7724 46.6829
   2  49.2366 49.1382 49.0628 48.9135 48.7914 48.6493 48.3658 48.2059 48.0281 47.6848 47.5110 47.4133 47.2175 47.1201 47.0205
      46.8316 46.7327 46.6298
   3  49.2075 49.0905 49.0110 48.8469 48.7284 48.5985 48.3461 48.1876 47.9960 47.6378 47.4884 47.3892 47.1932 47.0889 46.9846
      46.7972 46.6954 46.5941
   4  49.1563 49.0313 48.9435 48.7658 48.6490 48.5361 48.3214 48.1728 47.9723 47.6016 47.4669 47.3581 47.1529 47.0431 46.9346
      46.7428 46.6389 46.5380
   5  49.1284 48.9953 48.9012 48.7190 48.6103 48.4977 48.2996 48.1755 47.9748 47.5936 47.4556 47.3375 47.1237 47.0111 46.8990
      46.7020 46.5965 46.5028
   6  49.1033 48.9631 48.8639 48.6783 48.5760 48.4541 48.2537 48.1455 47.9816 47.5915 47.4428 47.3149 47.0897 46.9772 46.8617
      46.6558 46.5476 46.4625
   7  49.0609 48.9169 48.8114 48.6155 48.5092 48.3813 48.1874 48.0880 47.9435 47.5719 47.4179 47.2796 47.0354 46.9269 46.8084
      46.5882 46.4794 46.3976
   8  49.0383 48.8882 48.7739 48.5662 48.4386 48.3204 48.1407 48.0473 47.8785 47.5515 47.3993 47.2550 46.9991 46.8941 46.7763
      46.5494 46.4668 46.3859
   9  49.0183 48.8621 48.7247 48.4790 48.3409 48.2493 48.0869 47.9788 47.7945 47.5235 47.3793 47.2333 46.9732 46.8709 46.7582
      46.5421 46.4697 46.3924
  10  48.9831 48.8193 48.6579 48.3648 48.2459 48.1674 47.9981 47.8832 47.7219 47.4863 47.3512 47.2057 46.9447 46.8464 46.7427
      46.5469 46.4772 46.4067
  11  48.9650 48.7928 48.6168 48.2995 48.2041 48.1223 47.9441 47.8273 47.6913 47.4670 47.3357 47.1908 46.9281 46.8340 46.7382
      46.5581 46.4876 46.4172
  12  48.9520 48.7730 48.5901 48.2632 48.1735 48.0880 47.9045 47.7868 47.6733 47.4553 47.3271 47.1838 46.9200 46.8280 46.7390
      46.5711 46.5024 46.4293
  13  48.9327 48.7505 48.5662 48.2319 48.1349 48.0473 47.8625 47.7552 47.6518 47.4435 47.3212 47.1836 46.9252 46.8270 46.7444
      46.5925 46.5258 46.4513
  14  48.9173 48.7395 48.5645 48.2306 48.1133 48.0248 47.8370 47.7462 47.6460 47.4376 47.3224 47.1966 46.9535 46.8331 46.7528
      46.6117 46.5448 46.4682
  15  48.8793 48.7321 48.5906 48.2549 48.1200 48.0344 47.8310 47.7486 47.6569 47.4274 47.3294 47.2262 46.9798 46.8781 46.8044
      46.6366 46.5696 46.5003

 HEAD WILL BE SAVED ON UNIT   31 AT END OF TIME STEP    1, STRESS PERIOD    1
1
  VOLUMETRIC BUDGET FOR ENTIRE MODEL AT END OF TIME STEP    1, STRESS PERIOD   1
  ------------------------------------------------------------------------------

     CUMULATIVE VOLUMES      L**3       RATES FOR THIS TIME STEP      L**3/T
     ------------------                 ------------------------

           IN:                                      IN:
           ---                                      ---
             STORAGE =           0.0000               STORAGE =           0.0000
       CONSTANT HEAD =           0.0000         CONSTANT HEAD =           0.0000
       RIVER LEAKAGE =          81.7763         RIVER LEAKAGE =          81.7763
     GHOST-NODE HEAD =         330.7149       GHOST-NODE HEAD =         330.7149

            TOTAL IN =         412.4912              TOTAL IN =         412.4912

          OUT:                                     OUT:
          ----                                     ----
             STORAGE =           0.0000               STORAGE =           0.0000
       CONSTANT HEAD =           0.0000         CONSTANT HEAD =           0.0000
       RIVER LEAKAGE =         224.5190         RIVER LEAKAGE =         224.5190
     GHOST-NODE HEAD =         187.9725       GHOST-NODE HEAD =         187.9725

           TOTAL OUT =         412.4916             TOTAL OUT =         412.4916

            IN - OUT =      -3.6621E-04              IN - OUT =      -3.6621E-04

 PERCENT DISCREPANCY =          -0.00     PERCENT DISCREPANCY =          -0.00






         TIME SUMMARY AT END OF TIME STEP    1 IN STRESS PERIOD    1
                    SECONDS     MINUTES      HOURS       DAYS        YEARS
                    -----------------------------------------------------------
   TIME STEP LENGTH 1.00000     1.66667E-02 2.77778E-04 1.15741E-05 3.16881E-08
 STRESS PERIOD TIME 1.00000     1.66667E-02 2.77778E-04 1.15741E-05 3.16881E-08
         TOTAL TIME 1.00000     1.66667E-02 2.77778E-04 1.15741E-05 3.16881E-08
1
1
  FLUX ACROSS PARENT-CHILD INTERFACE AT TIME STEP  1 IN STRESS PERIOD    1
  ------------------------------------------------------------------------
 G-N FLUX        PARENT        CHILD         DIFFERENCE      % DIFFERENCE
  RATE IN:      3.3033E+02    3.3071E+02    -3.8275E-01       -0.1158
 RATE OUT:      1.8702E+02    1.8797E+02    -9.5122E-01       -0.5073

 Run end date and time (yyyy/mm/dd hh:mm:ss): 2013/09/19  9:59:24
 Elapsed run time:  0.076 Seconds

