                                  MODFLOW-LGR2     
      U.S. GEOLOGICAL SURVEY MODULAR FINITE-DIFFERENCE GROUND-WATER FLOW MODEL
                            VERSION 2.0.0  06/25/2013

 LIST FILE: ex3_child_bfh.out
                         UNIT   26

 OPENING ex3_child.ba6
 FILE TYPE:BAS6   UNIT    2   STATUS:OLD    
 FORMAT:FORMATTED              ACCESS:SEQUENTIAL          

 OPENING ex3_child.bc6
 FILE TYPE:BCF6   UNIT   21   STATUS:OLD    
 FORMAT:FORMATTED              ACCESS:SEQUENTIAL          

 OPENING ex3_child.dis
 FILE TYPE:DIS   UNIT   29   STATUS:OLD    
 FORMAT:FORMATTED              ACCESS:SEQUENTIAL          

 OPENING ex3_child.oc
 FILE TYPE:OC   UNIT   20   STATUS:OLD    
 FORMAT:FORMATTED              ACCESS:SEQUENTIAL          

 OPENING ex3_child.hed
 FILE TYPE:DATA(BINARY)   UNIT   31   STATUS:UNKNOWN
 FORMAT:BINARY                 ACCESS:SEQUENTIAL          

 OPENING ex3_child.flw
 FILE TYPE:DATA(BINARY)   UNIT   41   STATUS:UNKNOWN
 FORMAT:BINARY                 ACCESS:SEQUENTIAL          

 OPENING ex3_child.pcg
 FILE TYPE:PCG   UNIT   22   STATUS:OLD    
 FORMAT:FORMATTED              ACCESS:SEQUENTIAL          

 OPENING ex3_child.riv
 FILE TYPE:RIV   UNIT   25   STATUS:OLD    
 FORMAT:FORMATTED              ACCESS:SEQUENTIAL          

 OPENING ex3_child.wel
 FILE TYPE:WEL   UNIT   27   STATUS:OLD    
 FORMAT:FORMATTED              ACCESS:SEQUENTIAL          

 OPENING ex3_child_bfh.hed
 FILE TYPE:BFH2   UNIT   80   STATUS:OLD    
 FORMAT:FORMATTED              ACCESS:SEQUENTIAL          
#DATA 80 ex3_child_bfh.hed                                                                                                                                                                                                                                                                                  

 OPENING ex3_child_bfh.flw
 FILE TYPE:DATA   UNIT   81   STATUS:UNKNOWN
 FORMAT:FORMATTED              ACCESS:SEQUENTIAL          

 OPENING ex3_child.bot
 FILE TYPE:DATA   UNIT   51   STATUS:UNKNOWN
 FORMAT:FORMATTED              ACCESS:SEQUENTIAL          

 BAS -- BASIC PACKAGE, VERSION 7, 5/2/2005 INPUT READ FROM UNIT    2
 
 MODFLOW was compiled using mixed precision
 Precision of REAL variables:           6
 Precision of DOUBLE PRECISION variables:          15

 DISCRETIZATION INPUT DATA READ FROM UNIT   29
    6 LAYERS        15 ROWS        18 COLUMNS
    1 STRESS PERIOD(S) IN SIMULATION
 MODEL TIME UNIT IS SECONDS
 MODEL LENGTH UNIT IS METERS
  Confining bed flag for each layer:
   0   0   0   0   0   0

                     DELR =   34.3133    

                     DELC =   22.8756    



           TOP ELEVATION OF LAYER 1
 READING ON UNIT   51 WITH FORMAT: (FREE)              

           1       2       3       4       5       6       7       8       9      10      11      12      13      14      15
          16      17      18
 ...........................................................................................................................
   1   49.405  49.286  49.167  49.048  48.929  48.810  48.690  48.571  48.452  48.333  48.214  48.095  47.976  47.857  47.738
       47.619  47.500  47.381
   2   49.405  49.286  49.167  49.048  48.929  48.810  48.690  48.571  48.452  48.333  48.214  48.095  47.976  47.857  47.738
       47.619  47.500  47.381
   3   49.405  49.286  49.167  49.048  48.929  48.810  48.690  48.571  48.452  48.333  48.214  48.095  47.976  47.857  47.738
       47.619  47.500  47.381
   4   49.405  49.286  49.167  49.048  48.929  48.810  48.690  48.571  48.452  48.333  48.214  48.095  47.976  47.857  47.738
       47.619  47.500  47.381
   5   49.405  49.286  49.167  49.048  48.929  48.810  48.690  48.571  48.452  48.333  48.214  48.095  47.976  47.857  47.738
       47.619  47.500  47.381
   6   49.405  49.286  49.167  49.048  48.929  48.810  48.690  48.571  48.452  48.333  48.214  48.095  47.976  47.857  47.738
       47.619  47.500  47.381
   7   49.405  49.286  49.167  49.048  48.929  48.810  48.690  48.571  48.452  48.333  48.214  48.095  47.976  47.857  47.738
       47.619  47.500  47.381
   8   49.405  49.286  49.167  49.048  48.929  48.810  48.690  48.571  48.452  48.333  48.214  48.095  47.976  47.857  47.738
       47.619  47.500  47.381
   9   49.405  49.286  49.167  49.048  48.929  48.810  48.690  48.571  48.452  48.333  48.214  48.095  47.976  47.857  47.738
       47.619  47.500  47.381
  10   49.405  49.286  49.167  49.048  48.929  48.810  48.690  48.571  48.452  48.333  48.214  48.095  47.976  47.857  47.738
       47.619  47.500  47.381
  11   49.405  49.286  49.167  49.048  48.929  48.810  48.690  48.571  48.452  48.333  48.214  48.095  47.976  47.857  47.738
       47.619  47.500  47.381
  12   49.405  49.286  49.167  49.048  48.929  48.810  48.690  48.571  48.452  48.333  48.214  48.095  47.976  47.857  47.738
       47.619  47.500  47.381
  13   49.405  49.286  49.167  49.048  48.929  48.810  48.690  48.571  48.452  48.333  48.214  48.095  47.976  47.857  47.738
       47.619  47.500  47.381
  14   49.405  49.286  49.167  49.048  48.929  48.810  48.690  48.571  48.452  48.333  48.214  48.095  47.976  47.857  47.738
       47.619  47.500  47.381
  15   49.405  49.286  49.167  49.048  48.929  48.810  48.690  48.571  48.452  48.333  48.214  48.095  47.976  47.857  47.738
       47.619  47.500  47.381



             MODEL LAYER BOTTOM EL. FOR LAYER   1
 READING ON UNIT   51 WITH FORMAT: (FREE)              

           1       2       3       4       5       6       7       8       9      10      11      12      13      14      15
          16      17      18
 ...........................................................................................................................
   1   43.849  43.730  43.611  43.492  43.373  43.254  43.135  43.016  42.897  42.778  42.659  42.540  42.421  42.302  42.183
       42.063  41.944  41.825
   2   43.849  43.730  43.611  43.492  43.373  43.254  43.135  43.016  42.897  42.778  42.659  42.540  42.421  42.302  42.183
       42.063  41.944  41.825
   3   43.849  43.730  43.611  43.492  43.373  43.254  43.135  43.016  42.897  42.778  42.659  42.540  42.421  42.302  42.183
       42.063  41.944  41.825
   4   43.849  43.730  43.611  43.492  43.373  43.254  43.135  43.016  42.897  42.778  42.659  42.540  42.421  42.302  42.183
       42.063  41.944  41.825
   5   43.849  43.730  43.611  43.492  43.373  43.254  43.135  43.016  42.897  42.778  42.659  42.540  42.421  42.302  42.183
       42.063  41.944  41.825
   6   43.849  43.730  43.611  43.492  43.373  43.254  43.135  43.016  42.897  42.778  42.659  42.540  42.421  42.302  42.183
       42.063  41.944  41.825
   7   43.849  43.730  43.611  43.492  43.373  43.254  43.135  43.016  42.897  42.778  42.659  42.540  42.421  42.302  42.183
       42.063  41.944  41.825
   8   43.849  43.730  43.611  43.492  43.373  43.254  43.135  43.016  42.897  42.778  42.659  42.540  42.421  42.302  42.183
       42.063  41.944  41.825
   9   43.849  43.730  43.611  43.492  43.373  43.254  43.135  43.016  42.897  42.778  42.659  42.540  42.421  42.302  42.183
       42.063  41.944  41.825
  10   43.849  43.730  43.611  43.492  43.373  43.254  43.135  43.016  42.897  42.778  42.659  42.540  42.421  42.302  42.183
       42.063  41.944  41.825
  11   43.849  43.730  43.611  43.492  43.373  43.254  43.135  43.016  42.897  42.778  42.659  42.540  42.421  42.302  42.183
       42.063  41.944  41.825
  12   43.849  43.730  43.611  43.492  43.373  43.254  43.135  43.016  42.897  42.778  42.659  42.540  42.421  42.302  42.183
       42.063  41.944  41.825
  13   43.849  43.730  43.611  43.492  43.373  43.254  43.135  43.016  42.897  42.778  42.659  42.540  42.421  42.302  42.183
       42.063  41.944  41.825
  14   43.849  43.730  43.611  43.492  43.373  43.254  43.135  43.016  42.897  42.778  42.659  42.540  42.421  42.302  42.183
       42.063  41.944  41.825
  15   43.849  43.730  43.611  43.492  43.373  43.254  43.135  43.016  42.897  42.778  42.659  42.540  42.421  42.302  42.183
       42.063  41.944  41.825



             MODEL LAYER BOTTOM EL. FOR LAYER   2
 READING ON UNIT   51 WITH FORMAT: (FREE)              

           1       2       3       4       5       6       7       8       9      10      11      12      13      14      15
          16      17      18
 ...........................................................................................................................
   1   38.294  38.175  38.056  37.937  37.817  37.698  37.579  37.460  37.341  37.222  37.103  36.984  36.865  36.746  36.627
       36.508  36.389  36.270
   2   38.294  38.175  38.056  37.937  37.817  37.698  37.579  37.460  37.341  37.222  37.103  36.984  36.865  36.746  36.627
       36.508  36.389  36.270
   3   38.294  38.175  38.056  37.937  37.817  37.698  37.579  37.460  37.341  37.222  37.103  36.984  36.865  36.746  36.627
       36.508  36.389  36.270
   4   38.294  38.175  38.056  37.937  37.817  37.698  37.579  37.460  37.341  37.222  37.103  36.984  36.865  36.746  36.627
       36.508  36.389  36.270
   5   38.294  38.175  38.056  37.937  37.817  37.698  37.579  37.460  37.341  37.222  37.103  36.984  36.865  36.746  36.627
       36.508  36.389  36.270
   6   38.294  38.175  38.056  37.937  37.817  37.698  37.579  37.460  37.341  37.222  37.103  36.984  36.865  36.746  36.627
       36.508  36.389  36.270
   7   38.294  38.175  38.056  37.937  37.817  37.698  37.579  37.460  37.341  37.222  37.103  36.984  36.865  36.746  36.627
       36.508  36.389  36.270
   8   38.294  38.175  38.056  37.937  37.817  37.698  37.579  37.460  37.341  37.222  37.103  36.984  36.865  36.746  36.627
       36.508  36.389  36.270
   9   38.294  38.175  38.056  37.937  37.817  37.698  37.579  37.460  37.341  37.222  37.103  36.984  36.865  36.746  36.627
       36.508  36.389  36.270
  10   38.294  38.175  38.056  37.937  37.817  37.698  37.579  37.460  37.341  37.222  37.103  36.984  36.865  36.746  36.627
       36.508  36.389  36.270
  11   38.294  38.175  38.056  37.937  37.817  37.698  37.579  37.460  37.341  37.222  37.103  36.984  36.865  36.746  36.627
       36.508  36.389  36.270
  12   38.294  38.175  38.056  37.937  37.817  37.698  37.579  37.460  37.341  37.222  37.103  36.984  36.865  36.746  36.627
       36.508  36.389  36.270
  13   38.294  38.175  38.056  37.937  37.817  37.698  37.579  37.460  37.341  37.222  37.103  36.984  36.865  36.746  36.627
       36.508  36.389  36.270
  14   38.294  38.175  38.056  37.937  37.817  37.698  37.579  37.460  37.341  37.222  37.103  36.984  36.865  36.746  36.627
       36.508  36.389  36.270
  15   38.294  38.175  38.056  37.937  37.817  37.698  37.579  37.460  37.341  37.222  37.103  36.984  36.865  36.746  36.627
       36.508  36.389  36.270



             MODEL LAYER BOTTOM EL. FOR LAYER   3
 READING ON UNIT   51 WITH FORMAT: (FREE)              

           1       2       3       4       5       6       7       8       9      10      11      12      13      14      15
          16      17      18
 ...........................................................................................................................
   1   32.738  32.619  32.500  32.381  32.262  32.143  32.024  31.905  31.786  31.667  31.548  31.429  31.310  31.190  31.071
       30.952  30.833  30.714
   2   32.738  32.619  32.500  32.381  32.262  32.143  32.024  31.905  31.786  31.667  31.548  31.429  31.310  31.190  31.071
       30.952  30.833  30.714
   3   32.738  32.619  32.500  32.381  32.262  32.143  32.024  31.905  31.786  31.667  31.548  31.429  31.310  31.190  31.071
       30.952  30.833  30.714
   4   32.738  32.619  32.500  32.381  32.262  32.143  32.024  31.905  31.786  31.667  31.548  31.429  31.310  31.190  31.071
       30.952  30.833  30.714
   5   32.738  32.619  32.500  32.381  32.262  32.143  32.024  31.905  31.786  31.667  31.548  31.429  31.310  31.190  31.071
       30.952  30.833  30.714
   6   32.738  32.619  32.500  32.381  32.262  32.143  32.024  31.905  31.786  31.667  31.548  31.429  31.310  31.190  31.071
       30.952  30.833  30.714
   7   32.738  32.619  32.500  32.381  32.262  32.143  32.024  31.905  31.786  31.667  31.548  31.429  31.310  31.190  31.071
       30.952  30.833  30.714
   8   32.738  32.619  32.500  32.381  32.262  32.143  32.024  31.905  31.786  31.667  31.548  31.429  31.310  31.190  31.071
       30.952  30.833  30.714
   9   32.738  32.619  32.500  32.381  32.262  32.143  32.024  31.905  31.786  31.667  31.548  31.429  31.310  31.190  31.071
       30.952  30.833  30.714
  10   32.738  32.619  32.500  32.381  32.262  32.143  32.024  31.905  31.786  31.667  31.548  31.429  31.310  31.190  31.071
       30.952  30.833  30.714
  11   32.738  32.619  32.500  32.381  32.262  32.143  32.024  31.905  31.786  31.667  31.548  31.429  31.310  31.190  31.071
       30.952  30.833  30.714
  12   32.738  32.619  32.500  32.381  32.262  32.143  32.024  31.905  31.786  31.667  31.548  31.429  31.310  31.190  31.071
       30.952  30.833  30.714
  13   32.738  32.619  32.500  32.381  32.262  32.143  32.024  31.905  31.786  31.667  31.548  31.429  31.310  31.190  31.071
       30.952  30.833  30.714
  14   32.738  32.619  32.500  32.381  32.262  32.143  32.024  31.905  31.786  31.667  31.548  31.429  31.310  31.190  31.071
       30.952  30.833  30.714
  15   32.738  32.619  32.500  32.381  32.262  32.143  32.024  31.905  31.786  31.667  31.548  31.429  31.310  31.190  31.071
       30.952  30.833  30.714



             MODEL LAYER BOTTOM EL. FOR LAYER   4
 READING ON UNIT   51 WITH FORMAT: (FREE)              

           1       2       3       4       5       6       7       8       9      10      11      12      13      14      15
          16      17      18
 ...........................................................................................................................
   1   27.183  27.063  26.944  26.825  26.706  26.587  26.468  26.349  26.230  26.111  25.992  25.873  25.754  25.635  25.516
       25.397  25.278  25.159
   2   27.183  27.063  26.944  26.825  26.706  26.587  26.468  26.349  26.230  26.111  25.992  25.873  25.754  25.635  25.516
       25.397  25.278  25.159
   3   27.183  27.063  26.944  26.825  26.706  26.587  26.468  26.349  26.230  26.111  25.992  25.873  25.754  25.635  25.516
       25.397  25.278  25.159
   4   27.183  27.063  26.944  26.825  26.706  26.587  26.468  26.349  26.230  26.111  25.992  25.873  25.754  25.635  25.516
       25.397  25.278  25.159
   5   27.183  27.063  26.944  26.825  26.706  26.587  26.468  26.349  26.230  26.111  25.992  25.873  25.754  25.635  25.516
       25.397  25.278  25.159
   6   27.183  27.063  26.944  26.825  26.706  26.587  26.468  26.349  26.230  26.111  25.992  25.873  25.754  25.635  25.516
       25.397  25.278  25.159
   7   27.183  27.063  26.944  26.825  26.706  26.587  26.468  26.349  26.230  26.111  25.992  25.873  25.754  25.635  25.516
       25.397  25.278  25.159
   8   27.183  27.063  26.944  26.825  26.706  26.587  26.468  26.349  26.230  26.111  25.992  25.873  25.754  25.635  25.516
       25.397  25.278  25.159
   9   27.183  27.063  26.944  26.825  26.706  26.587  26.468  26.349  26.230  26.111  25.992  25.873  25.754  25.635  25.516
       25.397  25.278  25.159
  10   27.183  27.063  26.944  26.825  26.706  26.587  26.468  26.349  26.230  26.111  25.992  25.873  25.754  25.635  25.516
       25.397  25.278  25.159
  11   27.183  27.063  26.944  26.825  26.706  26.587  26.468  26.349  26.230  26.111  25.992  25.873  25.754  25.635  25.516
       25.397  25.278  25.159
  12   27.183  27.063  26.944  26.825  26.706  26.587  26.468  26.349  26.230  26.111  25.992  25.873  25.754  25.635  25.516
       25.397  25.278  25.159
  13   27.183  27.063  26.944  26.825  26.706  26.587  26.468  26.349  26.230  26.111  25.992  25.873  25.754  25.635  25.516
       25.397  25.278  25.159
  14   27.183  27.063  26.944  26.825  26.706  26.587  26.468  26.349  26.230  26.111  25.992  25.873  25.754  25.635  25.516
       25.397  25.278  25.159
  15   27.183  27.063  26.944  26.825  26.706  26.587  26.468  26.349  26.230  26.111  25.992  25.873  25.754  25.635  25.516
       25.397  25.278  25.159



             MODEL LAYER BOTTOM EL. FOR LAYER   5
 READING ON UNIT   51 WITH FORMAT: (FREE)              

           1       2       3       4       5       6       7       8       9      10      11      12      13      14      15
          16      17      18
 ...........................................................................................................................
   1   21.627  21.508  21.389  21.270  21.151  21.032  20.913  20.794  20.675  20.556  20.437  20.317  20.198  20.079  19.960
       19.841  19.722  19.603
   2   21.627  21.508  21.389  21.270  21.151  21.032  20.913  20.794  20.675  20.556  20.437  20.317  20.198  20.079  19.960
       19.841  19.722  19.603
   3   21.627  21.508  21.389  21.270  21.151  21.032  20.913  20.794  20.675  20.556  20.437  20.317  20.198  20.079  19.960
       19.841  19.722  19.603
   4   21.627  21.508  21.389  21.270  21.151  21.032  20.913  20.794  20.675  20.556  20.437  20.317  20.198  20.079  19.960
       19.841  19.722  19.603
   5   21.627  21.508  21.389  21.270  21.151  21.032  20.913  20.794  20.675  20.556  20.437  20.317  20.198  20.079  19.960
       19.841  19.722  19.603
   6   21.627  21.508  21.389  21.270  21.151  21.032  20.913  20.794  20.675  20.556  20.437  20.317  20.198  20.079  19.960
       19.841  19.722  19.603
   7   21.627  21.508  21.389  21.270  21.151  21.032  20.913  20.794  20.675  20.556  20.437  20.317  20.198  20.079  19.960
       19.841  19.722  19.603
   8   21.627  21.508  21.389  21.270  21.151  21.032  20.913  20.794  20.675  20.556  20.437  20.317  20.198  20.079  19.960
       19.841  19.722  19.603
   9   21.627  21.508  21.389  21.270  21.151  21.032  20.913  20.794  20.675  20.556  20.437  20.317  20.198  20.079  19.960
       19.841  19.722  19.603
  10   21.627  21.508  21.389  21.270  21.151  21.032  20.913  20.794  20.675  20.556  20.437  20.317  20.198  20.079  19.960
       19.841  19.722  19.603
  11   21.627  21.508  21.389  21.270  21.151  21.032  20.913  20.794  20.675  20.556  20.437  20.317  20.198  20.079  19.960
       19.841  19.722  19.603
  12   21.627  21.508  21.389  21.270  21.151  21.032  20.913  20.794  20.675  20.556  20.437  20.317  20.198  20.079  19.960
       19.841  19.722  19.603
  13   21.627  21.508  21.389  21.270  21.151  21.032  20.913  20.794  20.675  20.556  20.437  20.317  20.198  20.079  19.960
       19.841  19.722  19.603
  14   21.627  21.508  21.389  21.270  21.151  21.032  20.913  20.794  20.675  20.556  20.437  20.317  20.198  20.079  19.960
       19.841  19.722  19.603
  15   21.627  21.508  21.389  21.270  21.151  21.032  20.913  20.794  20.675  20.556  20.437  20.317  20.198  20.079  19.960
       19.841  19.722  19.603



             MODEL LAYER BOTTOM EL. FOR LAYER   6
 READING ON UNIT   51 WITH FORMAT: (FREE)              

           1       2       3       4       5       6       7       8       9      10      11      12      13      14      15
          16      17      18
 ...........................................................................................................................
   1   16.071  15.952  15.833  15.714  15.595  15.476  15.357  15.238  15.119  15.000  14.881  14.761  14.642  14.523  14.404
       14.285  14.166  14.047
   2   16.071  15.952  15.833  15.714  15.595  15.476  15.357  15.238  15.119  15.000  14.881  14.761  14.642  14.523  14.404
       14.285  14.166  14.047
   3   16.071  15.952  15.833  15.714  15.595  15.476  15.357  15.238  15.119  15.000  14.881  14.761  14.642  14.523  14.404
       14.285  14.166  14.047
   4   16.071  15.952  15.833  15.714  15.595  15.476  15.357  15.238  15.119  15.000  14.881  14.761  14.642  14.523  14.404
       14.285  14.166  14.047
   5   16.071  15.952  15.833  15.714  15.595  15.476  15.357  15.238  15.119  15.000  14.881  14.761  14.642  14.523  14.404
       14.285  14.166  14.047
   6   16.071  15.952  15.833  15.714  15.595  15.476  15.357  15.238  15.119  15.000  14.881  14.761  14.642  14.523  14.404
       14.285  14.166  14.047
   7   16.071  15.952  15.833  15.714  15.595  15.476  15.357  15.238  15.119  15.000  14.881  14.761  14.642  14.523  14.404
       14.285  14.166  14.047
   8   16.071  15.952  15.833  15.714  15.595  15.476  15.357  15.238  15.119  15.000  14.881  14.761  14.642  14.523  14.404
       14.285  14.166  14.047
   9   16.071  15.952  15.833  15.714  15.595  15.476  15.357  15.238  15.119  15.000  14.881  14.761  14.642  14.523  14.404
       14.285  14.166  14.047
  10   16.071  15.952  15.833  15.714  15.595  15.476  15.357  15.238  15.119  15.000  14.881  14.761  14.642  14.523  14.404
       14.285  14.166  14.047
  11   16.071  15.952  15.833  15.714  15.595  15.476  15.357  15.238  15.119  15.000  14.881  14.761  14.642  14.523  14.404
       14.285  14.166  14.047
  12   16.071  15.952  15.833  15.714  15.595  15.476  15.357  15.238  15.119  15.000  14.881  14.761  14.642  14.523  14.404
       14.285  14.166  14.047
  13   16.071  15.952  15.833  15.714  15.595  15.476  15.357  15.238  15.119  15.000  14.881  14.761  14.642  14.523  14.404
       14.285  14.166  14.047
  14   16.071  15.952  15.833  15.714  15.595  15.476  15.357  15.238  15.119  15.000  14.881  14.761  14.642  14.523  14.404
       14.285  14.166  14.047
  15   16.071  15.952  15.833  15.714  15.595  15.476  15.357  15.238  15.119  15.000  14.881  14.761  14.642  14.523  14.404
       14.285  14.166  14.047


 STRESS PERIOD     LENGTH       TIME STEPS     MULTIPLIER FOR DELT    SS FLAG
 ----------------------------------------------------------------------------
        1        1.0000000          1                    1.000         SS

 STEADY-STATE SIMULATION



 
 #Meandering River - 6 layers, lgr natural gradient - 03/18/2011                 
 THE FREE FORMAT OPTION HAS BEEN SELECTED
 CALCULATE FLOW BETWEEN ADJACENT CONSTANT-HEAD CELLS

 OPENING FILE ON UNIT   99:
 ex3_child.ib                                                                                                                                                                                            



                     BOUNDARY ARRAY FOR LAYER   1
 READING ON UNIT   99 WITH FORMAT: (FREE)              

         1    2    3    4    5    6    7    8    9   10   11   12   13   14   15   16   17   18
 ..............................................................................................
   1    59   59   59   59   59   59   59   59   59   59   59   59   59   59   59   59   59   59
   2    59    1    1    1    1    1    1    1    1    1    1    1    1    1    1    1    1   59
   3    59    1    1    1    1    1    1    1    1    1    1    1    1    1    1    1    1   59
   4    59    1    1    1    1    1    1    1    1    1    1    1    1    1    1    1    1   59
   5    59    1    1    1    1    1    1    1    1    1    1    1    1    1    1    1    1   59
   6    59    1    1    1    1    1    1    1    1    1    1    1    1    1    1    1    1   59
   7    59    1    1    1    1    1    1    1    1    1    1    1    1    1    1    1    1   59
   8    59    1    1    1    1    1    1    1    1    1    1    1    1    1    1    1    1   59
   9    59    1    1    1    1    1    1    1    1    1    1    1    1    1    1    1    1   59
  10    59    1    1    1    1    1    1    1    1    1    1    1    1    1    1    1    1   59
  11    59    1    1    1    1    1    1    1    1    1    1    1    1    1    1    1    1   59
  12    59    1    1    1    1    1    1    1    1    1    1    1    1    1    1    1    1   59
  13    59    1    1    1    1    1    1    1    1    1    1    1    1    1    1    1    1   59
  14    59    1    1    1    1    1    1    1    1    1    1    1    1    1    1    1    1   59
  15    59   59   59   59   59   59   59   59   59   59   59   59   59   59   59   59   59   59

 OPENING FILE ON UNIT   99:
 ex3_child.ib                                                                                                                                                                                            



                     BOUNDARY ARRAY FOR LAYER   2
 READING ON UNIT   99 WITH FORMAT: (FREE)              

         1    2    3    4    5    6    7    8    9   10   11   12   13   14   15   16   17   18
 ..............................................................................................
   1    59   59   59   59   59   59   59   59   59   59   59   59   59   59   59   59   59   59
   2    59    1    1    1    1    1    1    1    1    1    1    1    1    1    1    1    1   59
   3    59    1    1    1    1    1    1    1    1    1    1    1    1    1    1    1    1   59
   4    59    1    1    1    1    1    1    1    1    1    1    1    1    1    1    1    1   59
   5    59    1    1    1    1    1    1    1    1    1    1    1    1    1    1    1    1   59
   6    59    1    1    1    1    1    1    1    1    1    1    1    1    1    1    1    1   59
   7    59    1    1    1    1    1    1    1    1    1    1    1    1    1    1    1    1   59
   8    59    1    1    1    1    1    1    1    1    1    1    1    1    1    1    1    1   59
   9    59    1    1    1    1    1    1    1    1    1    1    1    1    1    1    1    1   59
  10    59    1    1    1    1    1    1    1    1    1    1    1    1    1    1    1    1   59
  11    59    1    1    1    1    1    1    1    1    1    1    1    1    1    1    1    1   59
  12    59    1    1    1    1    1    1    1    1    1    1    1    1    1    1    1    1   59
  13    59    1    1    1    1    1    1    1    1    1    1    1    1    1    1    1    1   59
  14    59    1    1    1    1    1    1    1    1    1    1    1    1    1    1    1    1   59
  15    59   59   59   59   59   59   59   59   59   59   59   59   59   59   59   59   59   59

 OPENING FILE ON UNIT   99:
 ex3_child.ib                                                                                                                                                                                            



                     BOUNDARY ARRAY FOR LAYER   3
 READING ON UNIT   99 WITH FORMAT: (FREE)              

         1    2    3    4    5    6    7    8    9   10   11   12   13   14   15   16   17   18
 ..............................................................................................
   1    59   59   59   59   59   59   59   59   59   59   59   59   59   59   59   59   59   59
   2    59    1    1    1    1    1    1    1    1    1    1    1    1    1    1    1    1   59
   3    59    1    1    1    1    1    1    1    1    1    1    1    1    1    1    1    1   59
   4    59    1    1    1    1    1    1    1    1    1    1    1    1    1    1    1    1   59
   5    59    1    1    1    1    1    1    1    1    1    1    1    1    1    1    1    1   59
   6    59    1    1    1    1    1    1    1    1    1    1    1    1    1    1    1    1   59
   7    59    1    1    1    1    1    1    1    1    1    1    1    1    1    1    1    1   59
   8    59    1    1    1    1    1    1    1    1    1    1    1    1    1    1    1    1   59
   9    59    1    1    1    1    1    1    1    1    1    1    1    1    1    1    1    1   59
  10    59    1    1    1    1    1    1    1    1    1    1    1    1    1    1    1    1   59
  11    59    1    1    1    1    1    1    1    1    1    1    1    1    1    1    1    1   59
  12    59    1    1    1    1    1    1    1    1    1    1    1    1    1    1    1    1   59
  13    59    1    1    1    1    1    1    1    1    1    1    1    1    1    1    1    1   59
  14    59    1    1    1    1    1    1    1    1    1    1    1    1    1    1    1    1   59
  15    59   59   59   59   59   59   59   59   59   59   59   59   59   59   59   59   59   59

 OPENING FILE ON UNIT   99:
 ex3_child.ib                                                                                                                                                                                            



                     BOUNDARY ARRAY FOR LAYER   4
 READING ON UNIT   99 WITH FORMAT: (FREE)              

         1    2    3    4    5    6    7    8    9   10   11   12   13   14   15   16   17   18
 ..............................................................................................
   1    59   59   59   59   59   59   59   59   59   59   59   59   59   59   59   59   59   59
   2    59    1    1    1    1    1    1    1    1    1    1    1    1    1    1    1    1   59
   3    59    1    1    1    1    1    1    1    1    1    1    1    1    1    1    1    1   59
   4    59    1    1    1    1    1    1    1    1    1    1    1    1    1    1    1    1   59
   5    59    1    1    1    1    1    1    1    1    1    1    1    1    1    1    1    1   59
   6    59    1    1    1    1    1    1    1    1    1    1    1    1    1    1    1    1   59
   7    59    1    1    1    1    1    1    1    1    1    1    1    1    1    1    1    1   59
   8    59    1    1    1    1    1    1    1    1    1    1    1    1    1    1    1    1   59
   9    59    1    1    1    1    1    1    1    1    1    1    1    1    1    1    1    1   59
  10    59    1    1    1    1    1    1    1    1    1    1    1    1    1    1    1    1   59
  11    59    1    1    1    1    1    1    1    1    1    1    1    1    1    1    1    1   59
  12    59    1    1    1    1    1    1    1    1    1    1    1    1    1    1    1    1   59
  13    59    1    1    1    1    1    1    1    1    1    1    1    1    1    1    1    1   59
  14    59    1    1    1    1    1    1    1    1    1    1    1    1    1    1    1    1   59
  15    59   59   59   59   59   59   59   59   59   59   59   59   59   59   59   59   59   59

 OPENING FILE ON UNIT   99:
 ex3_child.ib                                                                                                                                                                                            



                     BOUNDARY ARRAY FOR LAYER   5
 READING ON UNIT   99 WITH FORMAT: (FREE)              

         1    2    3    4    5    6    7    8    9   10   11   12   13   14   15   16   17   18
 ..............................................................................................
   1    59   59   59   59   59   59   59   59   59   59   59   59   59   59   59   59   59   59
   2    59    1    1    1    1    1    1    1    1    1    1    1    1    1    1    1    1   59
   3    59    1    1    1    1    1    1    1    1    1    1    1    1    1    1    1    1   59
   4    59    1    1    1    1    1    1    1    1    1    1    1    1    1    1    1    1   59
   5    59    1    1    1    1    1    1    1    1    1    1    1    1    1    1    1    1   59
   6    59    1    1    1    1    1    1    1    1    1    1    1    1    1    1    1    1   59
   7    59    1    1    1    1    1    1    1    1    1    1    1    1    1    1    1    1   59
   8    59    1    1    1    1    1    1    1    1    1    1    1    1    1    1    1    1   59
   9    59    1    1    1    1    1    1    1    1    1    1    1    1    1    1    1    1   59
  10    59    1    1    1    1    1    1    1    1    1    1    1    1    1    1    1    1   59
  11    59    1    1    1    1    1    1    1    1    1    1    1    1    1    1    1    1   59
  12    59    1    1    1    1    1    1    1    1    1    1    1    1    1    1    1    1   59
  13    59    1    1    1    1    1    1    1    1    1    1    1    1    1    1    1    1   59
  14    59    1    1    1    1    1    1    1    1    1    1    1    1    1    1    1    1   59
  15    59   59   59   59   59   59   59   59   59   59   59   59   59   59   59   59   59   59

           BOUNDARY ARRAY =             59 FOR LAYER   6

 AQUIFER HEAD WILL BE SET TO  -333.00     AT ALL NO-FLOW NODES (IBOUND=0).

             INITIAL HEAD =   47.0000     FOR LAYER   1

             INITIAL HEAD =   47.0000     FOR LAYER   2

             INITIAL HEAD =   47.0000     FOR LAYER   3

             INITIAL HEAD =   47.0000     FOR LAYER   4

             INITIAL HEAD =   47.0000     FOR LAYER   5

             INITIAL HEAD =   47.0000     FOR LAYER   6

 OUTPUT CONTROL IS SPECIFIED ONLY AT TIME STEPS FOR WHICH OUTPUT IS DESIRED
 HEAD PRINT FORMAT CODE IS   6    DRAWDOWN PRINT FORMAT CODE IS   0
 HEADS WILL BE SAVED ON UNIT   31    DRAWDOWNS WILL BE SAVED ON UNIT    0

 BCF -- BLOCK-CENTERED FLOW PACKAGE, VERSION 7, 5/2/2005
         INPUT READ FROM UNIT 21
 STEADY-STATE SIMULATION
 CELL-BY-CELL FLOWS WILL BE SAVED ON UNIT 41
 HEAD AT CELLS THAT CONVERT TO DRY=  -888.00    
 WETTING CAPABILITY IS NOT ACTIVE
      LAYER  LAYER-TYPE CODE     INTERBLOCK T
      --------------------------------------------
         1            1          0 -- HARMONIC    
         2            3          0 -- HARMONIC    
         3            3          0 -- HARMONIC    
         4            3          0 -- HARMONIC    
         5            3          0 -- HARMONIC    
         6            3          0 -- HARMONIC    

 COLUMN TO ROW ANISOTROPY =  1.000000    

    HYD. COND. ALONG ROWS =  1.000000     FOR LAYER   1

 VERT HYD COND /THICKNESS =  0.180000     FOR LAYER   1

    HYD. COND. ALONG ROWS =  1.000000     FOR LAYER   2

 VERT HYD COND /THICKNESS =  0.180000     FOR LAYER   2

    HYD. COND. ALONG ROWS =  1.000000     FOR LAYER   3

 VERT HYD COND /THICKNESS =  0.180000     FOR LAYER   3

    HYD. COND. ALONG ROWS =  1.000000     FOR LAYER   4

 VERT HYD COND /THICKNESS =  0.180000     FOR LAYER   4

    HYD. COND. ALONG ROWS =  1.000000     FOR LAYER   5

 VERT HYD COND /THICKNESS =  0.180000     FOR LAYER   5

    HYD. COND. ALONG ROWS =  1.000000     FOR LAYER   6

 WEL -- WELL PACKAGE, VERSION 7, 5/2/2005 INPUT READ FROM UNIT   27
 No named parameters
 MAXIMUM OF      1 ACTIVE WELLS AT ONE TIME


     0 Well parameters

 RIV -- RIVER PACKAGE, VERSION 7, 5/2/2005 INPUT READ FROM UNIT   25
 No named parameters
 MAXIMUM OF     89 ACTIVE RIVER REACHES AT ONE TIME
 CELL-BY-CELL FLOWS WILL BE PRINTED WHEN ICBCFL NOT 0
 AUXILIARY RIVER VARIABLE: IFACE           
 AUXILIARY RIVER VARIABLE: CONDFACT        
 AUXILIARY RIVER VARIABLE: CELLGRP         


     0 River parameters

 BFH2 -- BOUNDARY FLOW AND HEAD PACKAGE, VERSION 2.0, 06/25/2013
        INPUT READ FROM UNIT   80
 GHOST-NODE HEAD  
 RUNNING CHILD MODEL WITH   666 SPECIFIED HEAD BOUNDARY NODES
 CHECKING AGAINST FLUX BOUNDARY CONDITIONS ON UNIT   81

 PCG -- CONJUGATE-GRADIENT SOLUTION PACKAGE, VERSION 7, 5/2/2005
 MAXIMUM OF     25 CALLS OF SOLUTION ROUTINE
 MAXIMUM OF    500 INTERNAL ITERATIONS PER CALL TO SOLUTION ROUTINE
 MATRIX PRECONDITIONING TYPE :    1



                                    SOLUTION BY THE CONJUGATE-GRADIENT METHOD
                                   -------------------------------------------
                    MAXIMUM NUMBER OF CALLS TO PCG ROUTINE =       25
                        MAXIMUM ITERATIONS PER CALL TO PCG =      500
                               MATRIX PRECONDITIONING TYPE =        1
        RELAXATION FACTOR (ONLY USED WITH PRECOND. TYPE 1) =    0.10000E+01
 PARAMETER OF POLYNOMIAL PRECOND. = 2 (2) OR IS CALCULATED :        0
                         HEAD CHANGE CRITERION FOR CLOSURE =    0.10000E-03
                     RESIDUAL CHANGE CRITERION FOR CLOSURE =    0.10000E-03
            PCG HEAD AND RESIDUAL CHANGE PRINTOUT INTERVAL =      999
     PRINTING FROM SOLVER IS LIMITED(1) OR SUPPRESSED (>1) =        1
                            STEADY-STATE DAMPING PARAMETER =    0.10000E+01
                               TRANSIENT DAMPING PARAMETER =    0.10000E+01
1
                            STRESS PERIOD NO.    1, LENGTH =  1.0000000    
                            -----------------------------------------------

                              NUMBER OF TIME STEPS =     1

                               MULTIPLIER FOR DELT =     1.000

                            INITIAL TIME STEP SIZE =  1.0000000    

 WELL NO.  LAYER   ROW   COL   STRESS RATE         
 --------------------------------------------------
      1      2      6     10      -9.000    

      1 WELL 

 REACH NO.  LAYER   ROW   COL     STAGE      CONDUCTANCE     BOTTOM EL.         IFACE           CONDFACT        CELLGRP         
 -------------------------------------------------------------------------------------------------------------------------------
      1      1      1      4       49.14           49.28           48.64           6.000           24.64           4.000    
      2      1      2      4       49.10           63.93           48.60           6.000           31.97          10.000    
      3      1      2      3       49.06           52.75           48.56           6.000           26.38           9.000    
      4      1      3      3       49.03           23.55           48.53           6.000           11.77           14.00    
      5      1      3      2       49.00           45.84           48.50           6.000           22.92           13.00    
      6      1      4      2       48.97           49.90           48.47           6.000           24.95           18.00    
      7      1      5      2       48.93           47.76           48.43           6.000           23.88           24.00    
      8      1      6      2       48.90           46.38           48.40           6.000           23.19           30.00    
      9      1      7      2       48.86           49.52           48.36           6.000           24.76           36.00    
     10      1      8      2       48.83           49.82           48.33           6.000           24.91           47.00    
     11      1      8      3       48.78           68.73           48.28           6.000           34.37           48.00    
     12      1      8      4       48.73           75.67           48.23           6.000           37.83           49.00    
     13      1      8      5       48.70           13.48           48.20           6.000           6.740           50.00    
     14      1      7      5       48.67           50.30           48.17           6.000           25.15           37.00    
     15      1      6      5       48.64           45.78           48.14           6.000           22.89           31.00    
     16      1      5      5       48.60           49.26           48.10           6.000           24.63           25.00    
     17      1      4      5       48.57           48.21           48.07           6.000           24.10           19.00    
     18      1      4      6       48.52           71.75           48.02           6.000           35.87           20.00    
     19      1      4      7       48.48           40.20           47.98           6.000           20.10           21.00    
     20      1      5      7       48.44           71.27           47.94           6.000           35.64           26.00    
     21      1      5      8       48.39           78.55           47.89           6.000           39.27           27.00    
     22      1      6      8       48.35           15.70           47.85           6.000           7.848           32.00    
     23      1      6      9       48.34           30.96           47.84           6.000           15.48           33.00    
     24      1      7      9       48.31           45.77           47.81           6.000           22.88           38.00    
     25      1      8      9       48.29           13.23           47.79           6.000           6.613           53.00    
     26      1      8      8       48.26           63.99           47.76           6.000           32.00           51.00    
     27      1      9      8       48.23           18.88           47.73           6.000           9.439           61.00    
     28      1      9      7       48.19           70.77           47.69           6.000           35.39           60.00    
     29      1      9      6       48.14           70.94           47.64           6.000           35.47           59.00    
     30      1      9      5       48.10           47.00           47.60           6.000           23.50           58.00    
     31      1     10      5       48.07           36.83           47.57           6.000           18.41           66.00    
     32      1     10      4       48.05           24.03           47.55           6.000           12.02           65.00    
     33      1     11      4       48.02           49.38           47.52           6.000           24.69           71.00    
     34      1     12      4       47.98           46.21           47.48           6.000           23.11           76.00    
     35      1     13      4       47.95           47.40           47.45           6.000           23.70           81.00    
     36      1     14      4       47.92           39.19           47.42           6.000           19.60           86.00    
     37      1     14      5       47.90           11.51           47.40           6.000           5.756           87.00    
     38      1     15      5       47.87           68.85           47.37           6.000           34.42           93.00    
     39      1     15      6       47.82           72.26           47.32           6.000           36.13           94.00    
     40      1     15      7       47.79           14.88           47.29           6.000           7.442           95.00    
     41      1     14      7       47.75           71.13           47.25           6.000           35.57           88.00    
     42      1     14      8       47.73           3.232           47.23           6.000           1.616           89.00    
     43      1     13      8       47.70           64.63           47.20           6.000           32.32           82.00    
     44      1     12      8       47.66           40.26           47.16           6.000           20.13           77.00    
     45      1     12      9       47.64           13.05           47.14           6.000           6.524           78.00    
     46      1     11      9       47.62           51.15           47.12           6.000           25.58           72.00    
     47      1     10      9       47.58           51.15           47.08           6.000           25.58           67.00    
     48      1      9      9       47.55           48.61           47.05           6.000           24.30           62.00    
     49      1      8      9       47.53           3.832           47.03           6.000           1.916           52.00    
     50      1      8     10       47.51           43.86           47.01           6.000           21.93           54.00    
     51      1      7     10       47.48           47.69           46.98           6.000           23.85           39.00    
     52      1      6     10       47.44           46.86           46.94           6.000           23.43           34.00    
     53      1      5     10       47.41           46.50           46.91           6.000           23.25           28.00    
     54      1      4     10       47.37           46.91           46.87           6.000           23.46           22.00    
     55      1      3     10       47.34           30.34           46.84           6.000           15.17           15.00    
     56      1      3     11       47.33           22.39           46.83           6.000           11.20           16.00    
     57      1      2     11       47.29           69.86           46.79           6.000           34.93           11.00    
     58      1      1     11       47.26           8.899           46.76           6.000           4.449           5.000    
     59      1      1     12       47.23           72.07           46.73           6.000           36.03           6.000    
     60      1      1     13       47.18           76.73           46.68           6.000           38.37           7.000    
     61      1      1     14       47.15           1.753           46.65           6.000          0.8767           8.000    
     62      1      2     14       47.13           60.12           46.63           6.000           30.06           12.00    
     63      1      3     14       47.09           50.70           46.59           6.000           25.35           17.00    
     64      1      4     14       47.05           47.11           46.55           6.000           23.55           23.00    
     65      1      5     14       47.02           49.38           46.52           6.000           24.69           29.00    
     66      1      6     14       46.98           52.15           46.48           6.000           26.07           35.00    
     67      1      7     14       46.95           27.09           46.45           6.000           13.54           41.00    
     68      1      7     13       46.93           26.61           46.43           6.000           13.30           40.00    
     69      1      8     13       46.90           56.29           46.40           6.000           28.15           55.00    
     70      1      9     13       46.86           48.75           46.36           6.000           24.37           63.00    
     71      1     10     13       46.83           46.43           46.33           6.000           23.21           68.00    
     72      1     11     13       46.79           46.60           46.29           6.000           23.30           73.00    
     73      1     12     13       46.76           49.26           46.26           6.000           24.63           79.00    
     74      1     13     13       46.72           55.43           46.22           6.000           27.72           83.00    
     75      1     13     14       46.70           3.529           46.20           6.000           1.765           84.00    
     76      1     14     14       46.67           79.10           46.17           6.000           39.55           90.00    
     77      1     14     15       46.61           74.29           46.11           6.000           37.14           91.00    
     78      1     14     16       46.57           29.89           46.07           6.000           14.94           92.00    
     79      1     13     16       46.54           49.70           46.04           6.000           24.85           85.00    
     80      1     12     16       46.51           47.47           46.01           6.000           23.74           80.00    
     81      1     11     16       46.48           31.94           45.98           6.000           15.97           74.00    
     82      1     11     17       46.46           21.27           45.96           6.000           10.63           75.00    
     83      1     10     17       46.44           22.85           45.94           6.000           11.43           70.00    
     84      1     10     16       46.42           40.02           45.92           6.000           20.01           69.00    
     85      1      9     16       46.39           49.28           45.89           6.000           24.64           64.00    
     86      1      8     16       46.35           55.92           45.85           6.000           27.96           56.00    
     87      1      7     16       46.32           9.291           45.82           6.000           4.645           42.00    
     88      1      7     17       46.29           73.44           45.79           6.000           36.72           43.00    
     89      1      7     18       46.24           68.94           45.74           6.000           34.47           44.00    

     89 RIVER REACHES
 
 SOLVING FOR HEAD 


     5 CALLS TO PCG ROUTINE FOR TIME STEP   1 IN STRESS PERIOD    1
    36 TOTAL ITERATIONS

 OUTPUT CONTROL FOR STRESS PERIOD    1   TIME STEP    1
    PRINT HEAD FOR ALL LAYERS
    SAVE HEAD FOR ALL LAYERS
    PRINT BUDGET
    SAVE BUDGET
 UBUDSV SAVING "   CONSTANT HEAD" ON UNIT 41 AT TIME STEP  1, STRESS PERIOD    1
 UBUDSV SAVING "FLOW RIGHT FACE " ON UNIT 41 AT TIME STEP  1, STRESS PERIOD    1
 UBUDSV SAVING "FLOW FRONT FACE " ON UNIT 41 AT TIME STEP  1, STRESS PERIOD    1
 UBUDSV SAVING "FLOW LOWER FACE " ON UNIT 41 AT TIME STEP  1, STRESS PERIOD    1

    RIVER LEAKAGE   PERIOD    1   STEP   1
 REACH      1   LAYER   1   ROW     1   COL     4   RATE    4.26845    
 REACH      2   LAYER   1   ROW     2   COL     4   RATE    5.56493    
 REACH      3   LAYER   1   ROW     2   COL     3   RATE  -4.315201E-02
 REACH      4   LAYER   1   ROW     3   COL     3   RATE   0.650600    
 REACH      5   LAYER   1   ROW     3   COL     2   RATE   -2.28997    
 REACH      6   LAYER   1   ROW     4   COL     2   RATE   -1.81044    
 REACH      7   LAYER   1   ROW     5   COL     2   RATE   -1.61803    
 REACH      8   LAYER   1   ROW     6   COL     2   RATE   -1.53661    
 REACH      9   LAYER   1   ROW     7   COL     2   RATE   -1.53624    
 REACH     10   LAYER   1   ROW     8   COL     2   RATE   -1.78081    
 REACH     11   LAYER   1   ROW     8   COL     3   RATE   0.958251    
 REACH     12   LAYER   1   ROW     8   COL     4   RATE    5.61779    
 REACH     13   LAYER   1   ROW     8   COL     5   RATE    2.97813    
 REACH     14   LAYER   1   ROW     7   COL     5   RATE    4.52679    
 REACH     15   LAYER   1   ROW     6   COL     5   RATE    1.66422    
 REACH     16   LAYER   1   ROW     5   COL     5   RATE  -0.262880    
 REACH     17   LAYER   1   ROW     4   COL     5   RATE   -2.67297    
 REACH     18   LAYER   1   ROW     4   COL     6   RATE  -0.146276    
 REACH     19   LAYER   1   ROW     4   COL     7   RATE    3.26476    
 REACH     20   LAYER   1   ROW     5   COL     7   RATE    3.85751    
 REACH     21   LAYER   1   ROW     5   COL     8   RATE    7.80864    
 REACH     22   LAYER   1   ROW     6   COL     8   RATE    2.34939    
 REACH     23   LAYER   1   ROW     6   COL     9   RATE    8.25396    
 REACH     24   LAYER   1   ROW     7   COL     9   RATE    10.5815    
 REACH     25   LAYER   1   ROW     8   COL     9   RATE    4.92034    
 REACH     26   LAYER   1   ROW     8   COL     8   RATE    6.84096    
 REACH     27   LAYER   1   ROW     9   COL     8   RATE    3.68769    
 REACH     28   LAYER   1   ROW     9   COL     7   RATE    3.43292    
 REACH     29   LAYER   1   ROW     9   COL     6   RATE   -2.97786    
 REACH     30   LAYER   1   ROW     9   COL     5   RATE   -6.69722    
 REACH     31   LAYER   1   ROW    10   COL     5   RATE   -4.01125    
 REACH     32   LAYER   1   ROW    10   COL     4   RATE   -5.81084    
 REACH     33   LAYER   1   ROW    11   COL     4   RATE   -7.94497    
 REACH     34   LAYER   1   ROW    12   COL     4   RATE   -7.25148    
 REACH     35   LAYER   1   ROW    13   COL     4   RATE   -7.68811    
 REACH     36   LAYER   1   ROW    14   COL     4   RATE   -7.95257    
 REACH     37   LAYER   1   ROW    14   COL     5   RATE   -1.82801    
 REACH     38   LAYER   1   ROW    15   COL     5   RATE   -8.14531    
 REACH     39   LAYER   1   ROW    15   COL     6   RATE   -6.26427    
 REACH     40   LAYER   1   ROW    15   COL     7   RATE  -0.649040    
 REACH     41   LAYER   1   ROW    14   COL     7   RATE   -3.41452    
 REACH     42   LAYER   1   ROW    14   COL     8   RATE  -3.192259E-02
 REACH     43   LAYER   1   ROW    13   COL     8   RATE   -1.58711    
 REACH     44   LAYER   1   ROW    12   COL     8   RATE   -2.98944    
 REACH     45   LAYER   1   ROW    12   COL     9   RATE   1.011481E-02
 REACH     46   LAYER   1   ROW    11   COL     9   RATE   -1.28820    
 REACH     47   LAYER   1   ROW    10   COL     9   RATE   -3.37720    
 REACH     48   LAYER   1   ROW     9   COL     9   RATE   -6.80518    
 REACH     49   LAYER   1   ROW     8   COL     9   RATE   -1.47910    
 REACH     50   LAYER   1   ROW     8   COL    10   RATE   -1.52571    
 REACH     51   LAYER   1   ROW     7   COL    10   RATE   -2.90003    
 REACH     52   LAYER   1   ROW     6   COL    10   RATE   -1.85557    
 REACH     53   LAYER   1   ROW     5   COL    10   RATE   -4.73156    
 REACH     54   LAYER   1   ROW     4   COL    10   RATE   -6.39629    
 REACH     55   LAYER   1   ROW     3   COL    10   RATE   -6.27032    
 REACH     56   LAYER   1   ROW     3   COL    11   RATE   -2.26953    
 REACH     57   LAYER   1   ROW     2   COL    11   RATE   -7.40866    
 REACH     58   LAYER   1   ROW     1   COL    11   RATE   -2.22985    
 REACH     59   LAYER   1   ROW     1   COL    12   RATE   -6.87759    
 REACH     60   LAYER   1   ROW     1   COL    13   RATE   -2.91734    
 REACH     61   LAYER   1   ROW     1   COL    14   RATE   1.252362E-03
 REACH     62   LAYER   1   ROW     2   COL    14   RATE   0.297040    
 REACH     63   LAYER   1   ROW     3   COL    14   RATE   3.729202E-02
 REACH     64   LAYER   1   ROW     4   COL    14   RATE   0.106698    
 REACH     65   LAYER   1   ROW     5   COL    14   RATE   0.141820    
 REACH     66   LAYER   1   ROW     6   COL    14   RATE   0.200340    
 REACH     67   LAYER   1   ROW     7   COL    14   RATE   0.472611    
 REACH     68   LAYER   1   ROW     7   COL    13   RATE   -2.29649    
 REACH     69   LAYER   1   ROW     8   COL    13   RATE   -3.31598    
 REACH     70   LAYER   1   ROW     9   COL    13   RATE   -3.20632    
 REACH     71   LAYER   1   ROW    10   COL    13   RATE   -3.35440    
 REACH     72   LAYER   1   ROW    11   COL    13   RATE   -3.76148    
 REACH     73   LAYER   1   ROW    12   COL    13   RATE   -4.56519    
 REACH     74   LAYER   1   ROW    13   COL    13   RATE   -6.57151    
 REACH     75   LAYER   1   ROW    13   COL    14   RATE  -0.354701    
 REACH     76   LAYER   1   ROW    14   COL    14   RATE   -6.08160    
 REACH     77   LAYER   1   ROW    14   COL    15   RATE   -4.43878    
 REACH     78   LAYER   1   ROW    14   COL    16   RATE  -0.894520    
 REACH     79   LAYER   1   ROW    13   COL    16   RATE   -1.46297    
 REACH     80   LAYER   1   ROW    12   COL    16   RATE   -1.90477    
 REACH     81   LAYER   1   ROW    11   COL    16   RATE   -1.71177    
 REACH     82   LAYER   1   ROW    11   COL    17   RATE  -0.388086    
 REACH     83   LAYER   1   ROW    10   COL    17   RATE  -0.440812    
 REACH     84   LAYER   1   ROW    10   COL    16   RATE   -3.14578    
 REACH     85   LAYER   1   ROW     9   COL    16   RATE   -4.26236    
 REACH     86   LAYER   1   ROW     8   COL    16   RATE   -6.31357    
 REACH     87   LAYER   1   ROW     7   COL    16   RATE   -2.13756    
 REACH     88   LAYER   1   ROW     7   COL    17   RATE   -6.57800    
 REACH     89   LAYER   1   ROW     7   COL    18   RATE   -5.17672    
1
              HEAD IN LAYER   1 AT END OF TIME STEP   1 IN STRESS PERIOD    1
  ---------------------------------------------------------------------------

           1       2       3       4       5       6       7       8       9      10      11      12      13      14      15
          16      17      18
 ...........................................................................................................................
   1  49.2680 49.1831 49.1073 49.0540 48.8708 48.6897 48.4280 48.2345 48.0381 47.7528 47.5134 47.3286 47.2166 47.1491 47.0400
      46.8818 46.7708 46.6696
   2  49.2379 49.1332 49.0572 49.0121 48.7986 48.6301 48.3962 48.2068 47.9955 47.6834 47.3978 47.3674 47.2239 47.1222 47.0038
      46.8467 46.7328 46.6264
   3  49.2011 49.0529 49.0007 48.8716 48.7203 48.5761 48.3775 48.1888 47.9567 47.5515 47.4269 47.3553 47.2020 47.0858 46.9647
      46.8076 46.6912 46.5849
   4  49.1612 49.0041 48.9328 48.7897 48.6231 48.5257 48.4014 48.1958 47.9408 47.5096 47.4455 47.3346 47.1706 47.0484 46.9220
      46.7614 46.6430 46.5388
   5  49.1284 48.9659 48.8835 48.7375 48.6087 48.4875 48.3877 48.2874 47.9617 47.5092 47.4354 47.3114 47.1372 47.0124 46.8809
      46.7135 46.5923 46.4940
   6  49.0986 48.9306 48.8412 48.6957 48.6019 48.4390 48.2887 48.2026 48.0686 47.4813 47.4177 47.2843 47.0947 46.9742 46.8370
      46.6542 46.5247 46.4350
   7  49.0663 48.8934 48.7993 48.6558 48.5835 48.3788 48.2236 48.1303 48.0759 47.5371 47.4063 47.2524 47.0157 46.9316 46.7876
      46.5538 46.3830 46.3163
   8  49.0402 48.8617 48.7685 48.6553 48.4759 48.3029 48.1752 48.1502 47.9134 47.5447 47.3910 47.2242 46.9579 46.8876 46.7481
      46.4606 46.4426 46.3667
   9  49.0179 48.8525 48.6970 48.4781 48.2412 48.1839 48.1454 48.0314 47.6866 47.5295 47.3714 47.1997 46.9262 46.8595 46.7280
      46.4727 46.4555 46.3828
  10  48.9920 48.8195 48.6278 48.2874 48.1769 48.1462 48.0283 47.8931 47.6492 47.5021 47.3494 47.1768 46.8978 46.8383 46.7179
      46.4976 46.4613 46.3975
  11  48.9713 48.7899 48.5772 48.1796 48.1795 48.1025 47.9614 47.8201 47.6459 47.4832 47.3332 47.1604 46.8722 46.8240 46.7154
      46.5313 46.4764 46.4119
  12  48.9552 48.7669 48.5451 48.1406 48.1494 48.0629 47.9109 47.7380 47.6435 47.4707 47.3232 47.1515 46.8490 46.8134 46.7151
      46.5469 46.4986 46.4271
  13  48.9391 48.7484 48.5255 48.1116 48.1127 48.0244 47.8681 47.7268 47.6317 47.4611 47.3189 47.1530 46.8365 46.7968 46.7116
      46.5719 46.5201 46.4456
  14  48.9225 48.7369 48.5245 48.1205 48.0578 47.9848 47.8024 47.7370 47.6275 47.4562 47.3213 47.1723 46.9479 46.7429 46.6696
      46.6015 46.5424 46.4654
  15  48.9012 48.7303 48.5425 48.2539 47.9879 47.9045 47.8295 47.7429 47.6284 47.4551 47.3279 47.1934 46.9979 46.8591 46.7658
      46.6482 46.5673 46.4896
1
              HEAD IN LAYER   2 AT END OF TIME STEP   1 IN STRESS PERIOD    1
  ---------------------------------------------------------------------------

           1       2       3       4       5       6       7       8       9      10      11      12      13      14      15
          16      17      18
 ...........................................................................................................................
   1  49.2695 49.1845 49.1088 49.0298 48.8722 48.6938 48.4261 48.2353 48.0421 47.7530 47.5309 47.3697 47.2331 47.1506 47.0426
      46.8813 46.7717 46.6700
   2  49.2395 49.1342 49.0570 48.9827 48.7977 48.6313 48.3943 48.2068 47.9975 47.6856 47.4370 47.3726 47.2245 47.1210 47.0048
      46.8460 46.7328 46.6251
   3  49.2035 49.0648 48.9987 48.8687 48.7211 48.5772 48.3748 48.1884 47.9593 47.5847 47.4423 47.3576 47.2016 47.0857 46.9656
      46.8070 46.6913 46.5840
   4  49.1630 49.0142 48.9335 48.7885 48.6356 48.5267 48.3824 48.1921 47.9426 47.5442 47.4481 47.3359 47.1697 47.0477 46.9226
      46.7605 46.6428 46.5375
   5  49.1306 48.9752 48.8846 48.7365 48.6100 48.4876 48.3651 48.2474 47.9595 47.5353 47.4370 47.3126 47.1366 47.0117 46.8818
      46.7130 46.5926 46.4934
   6  49.1011 48.9397 48.8426 48.6944 48.5924 48.4393 48.2852 48.1864 48.0260 47.4780 47.4189 47.2858 47.0949 46.9734 46.8383
      46.6549 46.5273 46.4368
   7  49.0684 48.9020 48.7998 48.6519 48.5595 48.3783 48.2212 48.1243 48.0215 47.5504 47.4070 47.2540 47.0275 46.9296 46.7890
      46.5671 46.4178 46.3435
   8  49.0425 48.8710 48.7645 48.6266 48.4612 48.3040 48.1718 48.1144 47.8949 47.5516 47.3915 47.2260 46.9758 46.8883 46.7503
      46.4946 46.4461 46.3678
   9  49.0202 48.8535 48.6983 48.4788 48.2753 48.2002 48.1274 48.0115 47.7204 47.5301 47.3717 47.2018 46.9443 46.8606 46.7301
      46.4973 46.4570 46.3823
  10  48.9939 48.8197 48.6301 48.3187 48.2000 48.1486 48.0260 47.8921 47.6691 47.5018 47.3495 47.1787 46.9167 46.8392 46.7197
      46.5155 46.4646 46.3971
  11  48.9734 48.7902 48.5802 48.2233 48.1829 48.1037 47.9605 47.8213 47.6546 47.4826 47.3333 47.1624 46.8935 46.8251 46.7169
      46.5415 46.4791 46.4112
  12  48.9575 48.7674 48.5483 48.1821 48.1519 48.0643 47.9110 47.7538 47.6456 47.4699 47.3234 47.1537 46.8751 46.8151 46.7167
      46.5574 46.4991 46.4262
  13  48.9414 48.7487 48.5286 48.1548 48.1156 48.0260 47.8688 47.7359 47.6330 47.4603 47.3190 47.1552 46.8712 46.8021 46.7146
      46.5801 46.5206 46.4449
  14  48.9248 48.7372 48.5276 48.1629 48.0717 47.9892 47.8193 47.7384 47.6286 47.4551 47.3214 47.1737 46.9503 46.7751 46.6942
      46.6069 46.5427 46.4645
  15  48.9016 48.7304 48.5459 48.2577 48.0341 47.9419 47.8344 47.7436 47.6302 47.4535 47.3282 47.1957 46.9979 46.8626 46.7701
      46.6486 46.5679 46.4898
1
              HEAD IN LAYER   3 AT END OF TIME STEP   1 IN STRESS PERIOD    1
  ---------------------------------------------------------------------------

           1       2       3       4       5       6       7       8       9      10      11      12      13      14      15
          16      17      18
 ...........................................................................................................................
   1  49.2700 49.1864 49.1118 49.0093 48.8733 48.7018 48.4199 48.2364 48.0507 47.7509 47.5473 47.4041 47.2433 47.1527 47.0480
      46.8788 46.7729 46.6717
   2  49.2415 49.1356 49.0572 48.9602 48.7964 48.6339 48.3903 48.2066 48.0018 47.6882 47.4656 47.3810 47.2247 47.1204 47.0070
      46.8442 46.7328 46.6237
   3  49.2068 49.0738 48.9988 48.8642 48.7223 48.5796 48.3701 48.1878 47.9643 47.6081 47.4562 47.3622 47.2007 47.0858 46.9678
      46.8057 46.6917 46.5832
   4  49.1651 49.0218 48.9349 48.7859 48.6435 48.5280 48.3661 48.1870 47.9463 47.5691 47.4520 47.3387 47.1678 47.0469 46.9241
      46.7585 46.6423 46.5356
   5  49.1333 48.9826 48.8869 48.7343 48.6107 48.4881 48.3461 48.2187 47.9580 47.5557 47.4396 47.3155 47.1350 47.0112 46.8838
      46.7118 46.5932 46.4931
   6  49.1045 48.9472 48.8453 48.6918 48.5853 48.4404 48.2793 48.1719 47.9977 47.5179 47.4217 47.2891 47.0948 46.9732 46.8411
      46.6559 46.5315 46.4401
   7  49.0707 48.9085 48.8012 48.6455 48.5418 48.3780 48.2163 48.1154 47.9839 47.5593 47.4082 47.2573 47.0350 46.9286 46.7918
      46.5776 46.4424 46.3625
   8  49.0453 48.8777 48.7630 48.6059 48.4514 48.3062 48.1661 48.0883 47.8825 47.5550 47.3923 47.2299 46.9882 46.8895 46.7544
      46.5187 46.4513 46.3699
   9  49.0232 48.8552 48.7013 48.4798 48.2995 48.2134 48.1140 47.9970 47.7444 47.5302 47.3726 47.2060 46.9575 46.8625 46.7343
      46.5158 46.4597 46.3822
  10  48.9959 48.8200 48.6345 48.3411 48.2180 48.1523 48.0218 47.8904 47.6854 47.5006 47.3498 47.1826 46.9304 46.8409 46.7231
      46.5290 46.4679 46.3970
  11  48.9757 48.7908 48.5860 48.2555 48.1882 48.1063 47.9585 47.8229 47.6632 47.4810 47.3336 47.1665 46.9094 46.8271 46.7200
      46.5494 46.4815 46.4106
  12  48.9604 48.7684 48.5547 48.2140 48.1561 48.0674 47.9107 47.7654 47.6497 47.4683 47.3239 47.1581 46.8946 46.8179 46.7200
      46.5649 46.5000 46.4251
  13  48.9440 48.7493 48.5346 48.1872 48.1203 48.0292 47.8694 47.7431 47.6357 47.4583 47.3194 47.1596 46.8954 46.8087 46.7199
      46.5862 46.5214 46.4441
  14  48.9274 48.7378 48.5336 48.1930 48.0850 47.9966 47.8301 47.7405 47.6310 47.4529 47.3216 47.1770 46.9533 46.7980 46.7134
      46.6107 46.5432 46.4635
  15  48.9001 48.7307 48.5537 48.2610 48.0687 47.9730 47.8372 47.7448 47.6346 47.4494 47.3286 47.2012 46.9962 46.8677 46.7780
      46.6479 46.5689 46.4909
1
              HEAD IN LAYER   4 AT END OF TIME STEP   1 IN STRESS PERIOD    1
  ---------------------------------------------------------------------------

           1       2       3       4       5       6       7       8       9      10      11      12      13      14      15
          16      17      18
 ...........................................................................................................................
   1  49.2674 49.1878 49.1166 48.9901 48.8730 48.7152 48.4063 48.2371 48.0654 47.7425 47.5606 47.4341 47.2455 47.1545 47.0568
      46.8725 46.7738 46.6758
   2  49.2425 49.1369 49.0581 48.9421 48.7949 48.6377 48.3843 48.2065 48.0084 47.6894 47.4863 47.3911 47.2239 47.1202 47.0103
      46.8413 46.7328 46.6233
   3  49.2097 49.0806 49.0007 48.8589 48.7238 48.5835 48.3637 48.1872 47.9718 47.6239 47.4682 47.3688 47.1991 47.0863 46.9715
      46.8037 46.6923 46.5839
   4  49.1655 49.0271 48.9370 48.7816 48.6479 48.5298 48.3511 48.1816 47.9519 47.5857 47.4563 47.3431 47.1645 47.0459 46.9265
      46.7551 46.6416 46.5340
   5  49.1350 48.9883 48.8903 48.7308 48.6108 48.4897 48.3294 48.1982 47.9585 47.5700 47.4427 47.3200 47.1325 47.0109 46.8872
      46.7098 46.5941 46.4938
   6  49.1073 48.9534 48.8495 48.6882 48.5801 48.4427 48.2718 48.1597 47.9806 47.5431 47.4253 47.2943 47.0940 46.9737 46.8457
      46.6567 46.5365 46.4455
   7  49.0713 48.9132 48.8034 48.6374 48.5283 48.3783 48.2091 48.1056 47.9592 47.5637 47.4095 47.2621 47.0386 46.9280 46.7961
      46.5848 46.4598 46.3760
   8  49.0467 48.8827 48.7641 48.5903 48.4449 48.3095 48.1588 48.0693 47.8754 47.5553 47.3934 47.2357 46.9960 46.8910 46.7601
      46.5352 46.4570 46.3733
   9  49.0252 48.8573 48.7065 48.4804 48.3171 48.2251 48.1034 47.9871 47.7626 47.5292 47.3738 47.2124 46.9665 46.8649 46.7404
      46.5292 46.4629 46.3830
  10  48.9960 48.8203 48.6407 48.3560 48.2314 48.1569 48.0160 47.8885 47.6990 47.4978 47.3501 47.1883 46.9396 46.8428 46.7282
      46.5385 46.4711 46.3982
  11  48.9765 48.7916 48.5941 48.2782 48.1939 48.1102 47.9553 47.8246 47.6719 47.4781 47.3341 47.1725 46.9202 46.8294 46.7245
      46.5548 46.4837 46.4108
  12  48.9619 48.7697 48.5638 48.2375 48.1614 48.0722 47.9097 47.7742 47.6555 47.4654 47.3247 47.1646 46.9083 46.8212 46.7249
      46.5696 46.5009 46.4245
  13  48.9450 48.7500 48.5430 48.2102 48.1256 48.0339 47.8689 47.7485 47.6396 47.4550 47.3199 47.1658 46.9116 46.8154 46.7268
      46.5902 46.5226 46.4443
  14  48.9284 48.7385 48.5420 48.2133 48.0967 48.0054 47.8362 47.7426 47.6347 47.4493 47.3218 47.1820 46.9553 46.8143 46.7289
      46.6128 46.5437 46.4631
  15  48.8937 48.7311 48.5675 48.2590 48.0934 48.0003 47.8355 47.7461 47.6430 47.4412 47.3291 47.2109 46.9905 46.8727 46.7889
      46.6442 46.5697 46.4942
1
              HEAD IN LAYER   5 AT END OF TIME STEP   1 IN STRESS PERIOD    1
  ---------------------------------------------------------------------------

           1       2       3       4       5       6       7       8       9      10      11      12      13      14      15
          16      17      18
 ...........................................................................................................................
   1  49.2640 49.1880 49.1198 48.9737 48.8706 48.7239 48.3943 48.2371 48.0772 47.7351 47.5697 47.4552 47.2452 47.1554 47.0636
      46.8664 46.7739 46.6794
   2  49.2413 49.1379 49.0598 48.9270 48.7932 48.6428 48.3762 48.2061 48.0168 47.6883 47.5009 47.4018 47.2216 47.1202 47.0148
      46.8372 46.7327 46.6249
   3  49.2104 49.0860 49.0047 48.8531 48.7257 48.5896 48.3557 48.1869 47.9817 47.6329 47.4784 47.3774 47.1965 47.0873 46.9769
      46.8009 46.6935 46.5870
   4  49.1632 49.0303 48.9399 48.7751 48.6497 48.5324 48.3365 48.1764 47.9594 47.5947 47.4603 47.3489 47.1596 47.0447 46.9299
      46.7501 46.6405 46.5345
   5  49.1339 48.9925 48.8950 48.7258 48.6107 48.4927 48.3141 48.1837 47.9621 47.5781 47.4460 47.3264 47.1285 47.0108 46.8922
      46.7067 46.5952 46.4967
   6  49.1074 48.9586 48.8555 48.6837 48.5770 48.4469 48.2630 48.1502 47.9728 47.5571 47.4290 47.3017 47.0921 46.9749 46.8524
      46.6568 46.5419 46.4526
   7  49.0687 48.9160 48.8068 48.6275 48.5179 48.3792 48.1994 48.0959 47.9447 47.5636 47.4106 47.2687 47.0386 46.9275 46.8015
      46.5885 46.4718 46.3872
   8  49.0451 48.8861 48.7676 48.5775 48.4409 48.3140 48.1503 48.0557 47.8733 47.5525 47.3946 47.2434 46.9994 46.8925 46.7673
      46.5452 46.4623 46.3783
   9  49.0242 48.8596 48.7141 48.4803 48.3303 48.2366 48.0945 47.9810 47.7782 47.5264 47.3754 47.2211 46.9716 46.8677 46.7483
      46.5378 46.4663 46.3861
  10  48.9925 48.8201 48.6484 48.3638 48.2407 48.1620 48.0083 47.8860 47.7108 47.4930 47.3503 47.1957 46.9443 46.8447 46.7346
      46.5445 46.4742 46.4011
  11  48.9736 48.7923 48.6043 48.2927 48.1994 48.1155 47.9507 47.8260 47.6810 47.4735 47.3347 47.1804 46.9264 46.8317 46.7306
      46.5578 46.4858 46.4126
  12  48.9599 48.7713 48.5755 48.2538 48.1673 48.0789 47.9077 47.7810 47.6632 47.4612 47.3257 47.1730 46.9167 46.8247 46.7312
      46.5717 46.5017 46.4256
  13  48.9420 48.7505 48.5535 48.2250 48.1306 48.0399 47.8668 47.7525 47.6449 47.4502 47.3204 47.1737 46.9213 46.8216 46.7349
      46.5923 46.5240 46.4463
  14  48.9258 48.7391 48.5523 48.2256 48.1062 48.0149 47.8384 47.7446 47.6396 47.4443 47.3221 47.1884 46.9556 46.8257 46.7417
      46.6133 46.5443 46.4644
  15  48.8874 48.7316 48.5796 48.2575 48.1100 48.0202 47.8337 47.7474 47.6503 47.4341 47.3294 47.2191 46.9855 46.8764 46.7978
      46.6408 46.5701 46.4971
1
              HEAD IN LAYER   6 AT END OF TIME STEP   1 IN STRESS PERIOD    1
  ---------------------------------------------------------------------------

           1       2       3       4       5       6       7       8       9      10      11      12      13      14      15
          16      17      18
 ...........................................................................................................................
   1  49.2579 49.1861 49.1209 48.9585 48.8656 48.7286 48.3821 48.2357 48.0864 47.7264 47.5740 47.4686 47.2413 47.1545 47.0683
      46.8592 46.7724 46.6829
   2  49.2366 49.1382 49.0628 48.9135 48.7914 48.6492 48.3656 48.2056 48.0275 47.6840 47.5105 47.4129 47.2173 47.1201 47.0205
      46.8316 46.7327 46.6298
   3  49.2075 49.0905 49.0110 48.8469 48.7284 48.5984 48.3459 48.1869 47.9946 47.6358 47.4869 47.3884 47.1929 47.0888 46.9845
      46.7971 46.6954 46.5941
   4  49.1563 49.0313 48.9435 48.7658 48.6490 48.5360 48.3211 48.1718 47.9694 47.5965 47.4635 47.3565 47.1523 47.0430 46.9345
      46.7428 46.6389 46.5380
   5  49.1284 48.9953 48.9012 48.7190 48.6103 48.4976 48.2992 48.1740 47.9694 47.5799 47.4491 47.3350 47.1228 47.0109 46.8990
      46.7019 46.5965 46.5028
   6  49.1033 48.9631 48.8639 48.6783 48.5760 48.4539 48.2531 48.1435 47.9736 47.5619 47.4329 47.3117 47.0887 46.9770 46.8616
      46.6558 46.5476 46.4625
   7  49.0609 48.9169 48.8114 48.6155 48.5092 48.3812 48.1869 48.0866 47.9387 47.5584 47.4113 47.2771 47.0346 46.9267 46.8083
      46.5882 46.4794 46.3976
   8  49.0383 48.8882 48.7739 48.5662 48.4385 48.3203 48.1404 48.0465 47.8762 47.5464 47.3958 47.2534 46.9986 46.8939 46.7762
      46.5494 46.4668 46.3859
   9  49.0183 48.8621 48.7247 48.4790 48.3409 48.2492 48.0867 47.9784 47.7935 47.5214 47.3775 47.2324 46.9729 46.8708 46.7582
      46.5420 46.4697 46.3924
  10  48.9831 48.8193 48.6579 48.3648 48.2459 48.1674 47.9980 47.8829 47.7214 47.4854 47.3503 47.2052 46.9445 46.8463 46.7426
      46.5469 46.4772 46.4067
  11  48.9650 48.7928 48.6168 48.2995 48.2041 48.1222 47.9440 47.8272 47.6911 47.4666 47.3353 47.1905 46.9280 46.8339 46.7382
      46.5581 46.4876 46.4172
  12  48.9520 48.7730 48.5901 48.2632 48.1735 48.0880 47.9044 47.7867 47.6732 47.4551 47.3269 47.1836 46.9200 46.8280 46.7390
      46.5711 46.5024 46.4293
  13  48.9327 48.7505 48.5662 48.2319 48.1349 48.0473 47.8624 47.7552 47.6517 47.4434 47.3211 47.1835 46.9252 46.8270 46.7444
      46.5925 46.5258 46.4513
  14  48.9173 48.7395 48.5645 48.2306 48.1133 48.0248 47.8370 47.7462 47.6460 47.4376 47.3224 47.1966 46.9534 46.8331 46.7528
      46.6117 46.5448 46.4682
  15  48.8793 48.7321 48.5906 48.2549 48.1200 48.0344 47.8310 47.7486 47.6569 47.4274 47.3294 47.2262 46.9798 46.8781 46.8044
      46.6366 46.5696 46.5003

 HEAD WILL BE SAVED ON UNIT   31 AT END OF TIME STEP    1, STRESS PERIOD    1
1
  VOLUMETRIC BUDGET FOR ENTIRE MODEL AT END OF TIME STEP    1, STRESS PERIOD   1
  ------------------------------------------------------------------------------

     CUMULATIVE VOLUMES      L**3       RATES FOR THIS TIME STEP      L**3/T
     ------------------                 ------------------------

           IN:                                      IN:
           ---                                      ---
             STORAGE =           0.0000               STORAGE =           0.0000
       CONSTANT HEAD =           0.0000         CONSTANT HEAD =           0.0000
               WELLS =           0.0000                 WELLS =           0.0000
       RIVER LEAKAGE =          82.4940         RIVER LEAKAGE =          82.4940
     GHOST-NODE FLUX =         332.2248       GHOST-NODE FLUX =         332.2248

            TOTAL IN =         414.7188              TOTAL IN =         414.7188

          OUT:                                     OUT:
          ----                                     ----
             STORAGE =           0.0000               STORAGE =           0.0000
       CONSTANT HEAD =           0.0000         CONSTANT HEAD =           0.0000
               WELLS =           9.0000                 WELLS =           9.0000
       RIVER LEAKAGE =         219.6368         RIVER LEAKAGE =         219.6368
     GHOST-NODE FLUX =         186.0822       GHOST-NODE FLUX =         186.0822

           TOTAL OUT =         414.7191             TOTAL OUT =         414.7191

            IN - OUT =      -2.7466E-04              IN - OUT =      -2.7466E-04

 PERCENT DISCREPANCY =          -0.00     PERCENT DISCREPANCY =          -0.00






         TIME SUMMARY AT END OF TIME STEP    1 IN STRESS PERIOD    1
                    SECONDS     MINUTES      HOURS       DAYS        YEARS
                    -----------------------------------------------------------
   TIME STEP LENGTH 1.00000     1.66667E-02 2.77778E-04 1.15741E-05 3.16881E-08
 STRESS PERIOD TIME 1.00000     1.66667E-02 2.77778E-04 1.15741E-05 3.16881E-08
         TOTAL TIME 1.00000     1.66667E-02 2.77778E-04 1.15741E-05 3.16881E-08
1
1
  VOLUMETRIC BUDGET FOR BFH2 SPECIFIED HEADS AT TIME STEP  1 IN STRESS PERIOD   1
  -------------------------------------------------------------------------------

     CUMULATIVE VOLUMES      L**3       RATES FOR THIS TIME STEP      L**3/T
     ------------------                 ------------------------

            TOTAL IN =         332.2249              TOTAL IN =         332.2249

           TOTAL OUT =         186.0823             TOTAL OUT =         186.0823


BFH2: BOUNDARY FLUX COMPARISON
------------------------------
NEW TOTAL BOUNDARY FLUX =   146.142456    
OLD TOTAL BOUNDARY FLUX =   142.742249    
AVERAGE ABSOLUTE FLUX DIFFERENCE =  0.510542514E-02
MAXIMUM ABSOLUTE FLUX DIFFERENCE OF  0.566826344    
OCCURS AT PARENT LAYER 3 ROW 8 COLUMN 6
NEW FLUX AT THIS NODE = -0.485018462    
OLD FLUX AT THIS NODE =  -1.05184484    


 Run end date and time (yyyy/mm/dd hh:mm:ss): 2013/09/19  9:59:30
 Elapsed run time:  0.035 Seconds

