                                  MODFLOW-LGR      
      U.S. GEOLOGICAL SURVEY MODULAR FINITE-DIFFERENCE GROUND-WATER FLOW MODEL
                            VERSION 1.2.0  05/18/2010

 LIST FILE: ex3_child.out
                         UNIT   26

 OPENING ex3_child.ba6
 FILE TYPE:BAS6   UNIT    2   STATUS:OLD    
 FORMAT:FORMATTED              ACCESS:SEQUENTIAL          

 OPENING ex3_child.bc6
 FILE TYPE:BCF6   UNIT   21   STATUS:OLD    
 FORMAT:FORMATTED              ACCESS:SEQUENTIAL          

 OPENING ex3_child.dis
 FILE TYPE:DIS   UNIT   29   STATUS:OLD    
 FORMAT:FORMATTED              ACCESS:SEQUENTIAL          

 OPENING ex3_child.oc
 FILE TYPE:OC   UNIT   20   STATUS:OLD    
 FORMAT:FORMATTED              ACCESS:SEQUENTIAL          

 OPENING ex3_child.hed
 FILE TYPE:DATA(BINARY)   UNIT   31   STATUS:UNKNOWN
 FORMAT:BINARY                 ACCESS:SEQUENTIAL          

 OPENING ex3_child.flw
 FILE TYPE:DATA(BINARY)   UNIT   41   STATUS:UNKNOWN
 FORMAT:BINARY                 ACCESS:SEQUENTIAL          

 OPENING ex3_child.pcg
 FILE TYPE:PCG   UNIT   22   STATUS:OLD    
 FORMAT:FORMATTED              ACCESS:SEQUENTIAL          

 OPENING ex3_child.riv
 FILE TYPE:RIV   UNIT   25   STATUS:OLD    
 FORMAT:FORMATTED              ACCESS:SEQUENTIAL          
#BFH  80 ex3_child_bfh.hed                                                                                                                                                                                                                                                                                  

 OPENING ex3_child_bfh.hed
 FILE TYPE:DATA   UNIT   80   STATUS:UNKNOWN
 FORMAT:FORMATTED              ACCESS:SEQUENTIAL          

 OPENING ex3_child_bfh.flw
 FILE TYPE:DATA   UNIT   81   STATUS:UNKNOWN
 FORMAT:FORMATTED              ACCESS:SEQUENTIAL          

 OPENING ex3_child.bot
 FILE TYPE:DATA   UNIT   51   STATUS:UNKNOWN
 FORMAT:FORMATTED              ACCESS:SEQUENTIAL          

 BAS -- BASIC PACKAGE, VERSION 7, 5/2/2005 INPUT READ FROM UNIT    2

 DISCRETIZATION INPUT DATA READ FROM UNIT   29
    5 LAYERS        19 ROWS        22 COLUMNS
    1 STRESS PERIOD(S) IN SIMULATION
 MODEL TIME UNIT IS SECONDS
 MODEL LENGTH UNIT IS METERS
  Confining bed flag for each layer:
   0   0   0   0   0

                     DELR =   34.3133    

                     DELC =   22.8756    



           TOP ELEVATION OF LAYER 1
 READING ON UNIT   51 WITH FORMAT: (FREE)              

           1       2       3       4       5       6       7       8       9      10      11      12      13      14      15
          16      17      18      19      20      21      22
 ...........................................................................................................................
   1   49.643  49.524  49.405  49.286  49.167  49.048  48.929  48.810  48.690  48.571  48.452  48.333  48.214  48.095  47.976
       47.857  47.738  47.619  47.500  47.381  47.262  47.143
   2   49.643  49.524  49.405  49.286  49.167  49.048  48.929  48.810  48.690  48.571  48.452  48.333  48.214  48.095  47.976
       47.857  47.738  47.619  47.500  47.381  47.262  47.143
   3   49.643  49.524  49.405  49.286  49.167  49.048  48.929  48.810  48.690  48.571  48.452  48.333  48.214  48.095  47.976
       47.857  47.738  47.619  47.500  47.381  47.262  47.143
   4   49.643  49.524  49.405  49.286  49.167  49.048  48.929  48.810  48.690  48.571  48.452  48.333  48.214  48.095  47.976
       47.857  47.738  47.619  47.500  47.381  47.262  47.143
   5   49.643  49.524  49.405  49.286  49.167  49.048  48.929  48.810  48.690  48.571  48.452  48.333  48.214  48.095  47.976
       47.857  47.738  47.619  47.500  47.381  47.262  47.143
   6   49.643  49.524  49.405  49.286  49.167  49.048  48.929  48.810  48.690  48.571  48.452  48.333  48.214  48.095  47.976
       47.857  47.738  47.619  47.500  47.381  47.262  47.143
   7   49.643  49.524  49.405  49.286  49.167  49.048  48.929  48.810  48.690  48.571  48.452  48.333  48.214  48.095  47.976
       47.857  47.738  47.619  47.500  47.381  47.262  47.143
   8   49.643  49.524  49.405  49.286  49.167  49.048  48.929  48.810  48.690  48.571  48.452  48.333  48.214  48.095  47.976
       47.857  47.738  47.619  47.500  47.381  47.262  47.143
   9   49.643  49.524  49.405  49.286  49.167  49.048  48.929  48.810  48.690  48.571  48.452  48.333  48.214  48.095  47.976
       47.857  47.738  47.619  47.500  47.381  47.262  47.143
  10   49.643  49.524  49.405  49.286  49.167  49.048  48.929  48.810  48.690  48.571  48.452  48.333  48.214  48.095  47.976
       47.857  47.738  47.619  47.500  47.381  47.262  47.143
  11   49.643  49.524  49.405  49.286  49.167  49.048  48.929  48.810  48.690  48.571  48.452  48.333  48.214  48.095  47.976
       47.857  47.738  47.619  47.500  47.381  47.262  47.143
  12   49.643  49.524  49.405  49.286  49.167  49.048  48.929  48.810  48.690  48.571  48.452  48.333  48.214  48.095  47.976
       47.857  47.738  47.619  47.500  47.381  47.262  47.143
  13   49.643  49.524  49.405  49.286  49.167  49.048  48.929  48.810  48.690  48.571  48.452  48.333  48.214  48.095  47.976
       47.857  47.738  47.619  47.500  47.381  47.262  47.143
  14   49.643  49.524  49.405  49.286  49.167  49.048  48.929  48.810  48.690  48.571  48.452  48.333  48.214  48.095  47.976
       47.857  47.738  47.619  47.500  47.381  47.262  47.143
  15   49.643  49.524  49.405  49.286  49.167  49.048  48.929  48.810  48.690  48.571  48.452  48.333  48.214  48.095  47.976
       47.857  47.738  47.619  47.500  47.381  47.262  47.143
  16   49.643  49.524  49.405  49.286  49.167  49.048  48.929  48.810  48.690  48.571  48.452  48.333  48.214  48.095  47.976
       47.857  47.738  47.619  47.500  47.381  47.262  47.143
  17   49.643  49.524  49.405  49.286  49.167  49.048  48.929  48.810  48.690  48.571  48.452  48.333  48.214  48.095  47.976
       47.857  47.738  47.619  47.500  47.381  47.262  47.143
  18   49.643  49.524  49.405  49.286  49.167  49.048  48.929  48.810  48.690  48.571  48.452  48.333  48.214  48.095  47.976
       47.857  47.738  47.619  47.500  47.381  47.262  47.143
  19   49.643  49.524  49.405  49.286  49.167  49.048  48.929  48.810  48.690  48.571  48.452  48.333  48.214  48.095  47.976
       47.857  47.738  47.619  47.500  47.381  47.262  47.143



             MODEL LAYER BOTTOM EL. FOR LAYER   1
 READING ON UNIT   51 WITH FORMAT: (FREE)              

           1       2       3       4       5       6       7       8       9      10      11      12      13      14      15
          16      17      18      19      20      21      22
 ...........................................................................................................................
   1   44.087  43.968  43.849  43.730  43.611  43.492  43.373  43.254  43.135  43.016  42.897  42.778  42.659  42.540  42.421
       42.302  42.183  42.063  41.944  41.825  41.706  41.587
   2   44.087  43.968  43.849  43.730  43.611  43.492  43.373  43.254  43.135  43.016  42.897  42.778  42.659  42.540  42.421
       42.302  42.183  42.063  41.944  41.825  41.706  41.587
   3   44.087  43.968  43.849  43.730  43.611  43.492  43.373  43.254  43.135  43.016  42.897  42.778  42.659  42.540  42.421
       42.302  42.183  42.063  41.944  41.825  41.706  41.587
   4   44.087  43.968  43.849  43.730  43.611  43.492  43.373  43.254  43.135  43.016  42.897  42.778  42.659  42.540  42.421
       42.302  42.183  42.063  41.944  41.825  41.706  41.587
   5   44.087  43.968  43.849  43.730  43.611  43.492  43.373  43.254  43.135  43.016  42.897  42.778  42.659  42.540  42.421
       42.302  42.183  42.063  41.944  41.825  41.706  41.587
   6   44.087  43.968  43.849  43.730  43.611  43.492  43.373  43.254  43.135  43.016  42.897  42.778  42.659  42.540  42.421
       42.302  42.183  42.063  41.944  41.825  41.706  41.587
   7   44.087  43.968  43.849  43.730  43.611  43.492  43.373  43.254  43.135  43.016  42.897  42.778  42.659  42.540  42.421
       42.302  42.183  42.063  41.944  41.825  41.706  41.587
   8   44.087  43.968  43.849  43.730  43.611  43.492  43.373  43.254  43.135  43.016  42.897  42.778  42.659  42.540  42.421
       42.302  42.183  42.063  41.944  41.825  41.706  41.587
   9   44.087  43.968  43.849  43.730  43.611  43.492  43.373  43.254  43.135  43.016  42.897  42.778  42.659  42.540  42.421
       42.302  42.183  42.063  41.944  41.825  41.706  41.587
  10   44.087  43.968  43.849  43.730  43.611  43.492  43.373  43.254  43.135  43.016  42.897  42.778  42.659  42.540  42.421
       42.302  42.183  42.063  41.944  41.825  41.706  41.587
  11   44.087  43.968  43.849  43.730  43.611  43.492  43.373  43.254  43.135  43.016  42.897  42.778  42.659  42.540  42.421
       42.302  42.183  42.063  41.944  41.825  41.706  41.587
  12   44.087  43.968  43.849  43.730  43.611  43.492  43.373  43.254  43.135  43.016  42.897  42.778  42.659  42.540  42.421
       42.302  42.183  42.063  41.944  41.825  41.706  41.587
  13   44.087  43.968  43.849  43.730  43.611  43.492  43.373  43.254  43.135  43.016  42.897  42.778  42.659  42.540  42.421
       42.302  42.183  42.063  41.944  41.825  41.706  41.587
  14   44.087  43.968  43.849  43.730  43.611  43.492  43.373  43.254  43.135  43.016  42.897  42.778  42.659  42.540  42.421
       42.302  42.183  42.063  41.944  41.825  41.706  41.587
  15   44.087  43.968  43.849  43.730  43.611  43.492  43.373  43.254  43.135  43.016  42.897  42.778  42.659  42.540  42.421
       42.302  42.183  42.063  41.944  41.825  41.706  41.587
  16   44.087  43.968  43.849  43.730  43.611  43.492  43.373  43.254  43.135  43.016  42.897  42.778  42.659  42.540  42.421
       42.302  42.183  42.063  41.944  41.825  41.706  41.587
  17   44.087  43.968  43.849  43.730  43.611  43.492  43.373  43.254  43.135  43.016  42.897  42.778  42.659  42.540  42.421
       42.302  42.183  42.063  41.944  41.825  41.706  41.587
  18   44.087  43.968  43.849  43.730  43.611  43.492  43.373  43.254  43.135  43.016  42.897  42.778  42.659  42.540  42.421
       42.302  42.183  42.063  41.944  41.825  41.706  41.587
  19   44.087  43.968  43.849  43.730  43.611  43.492  43.373  43.254  43.135  43.016  42.897  42.778  42.659  42.540  42.421
       42.302  42.183  42.063  41.944  41.825  41.706  41.587



             MODEL LAYER BOTTOM EL. FOR LAYER   2
 READING ON UNIT   51 WITH FORMAT: (FREE)              

           1       2       3       4       5       6       7       8       9      10      11      12      13      14      15
          16      17      18      19      20      21      22
 ...........................................................................................................................
   1   38.532  38.413  38.294  38.175  38.056  37.937  37.817  37.698  37.579  37.460  37.341  37.222  37.103  36.984  36.865
       36.746  36.627  36.508  36.389  36.270  36.151  36.032
   2   38.532  38.413  38.294  38.175  38.056  37.937  37.817  37.698  37.579  37.460  37.341  37.222  37.103  36.984  36.865
       36.746  36.627  36.508  36.389  36.270  36.151  36.032
   3   38.532  38.413  38.294  38.175  38.056  37.937  37.817  37.698  37.579  37.460  37.341  37.222  37.103  36.984  36.865
       36.746  36.627  36.508  36.389  36.270  36.151  36.032
   4   38.532  38.413  38.294  38.175  38.056  37.937  37.817  37.698  37.579  37.460  37.341  37.222  37.103  36.984  36.865
       36.746  36.627  36.508  36.389  36.270  36.151  36.032
   5   38.532  38.413  38.294  38.175  38.056  37.937  37.817  37.698  37.579  37.460  37.341  37.222  37.103  36.984  36.865
       36.746  36.627  36.508  36.389  36.270  36.151  36.032
   6   38.532  38.413  38.294  38.175  38.056  37.937  37.817  37.698  37.579  37.460  37.341  37.222  37.103  36.984  36.865
       36.746  36.627  36.508  36.389  36.270  36.151  36.032
   7   38.532  38.413  38.294  38.175  38.056  37.937  37.817  37.698  37.579  37.460  37.341  37.222  37.103  36.984  36.865
       36.746  36.627  36.508  36.389  36.270  36.151  36.032
   8   38.532  38.413  38.294  38.175  38.056  37.937  37.817  37.698  37.579  37.460  37.341  37.222  37.103  36.984  36.865
       36.746  36.627  36.508  36.389  36.270  36.151  36.032
   9   38.532  38.413  38.294  38.175  38.056  37.937  37.817  37.698  37.579  37.460  37.341  37.222  37.103  36.984  36.865
       36.746  36.627  36.508  36.389  36.270  36.151  36.032
  10   38.532  38.413  38.294  38.175  38.056  37.937  37.817  37.698  37.579  37.460  37.341  37.222  37.103  36.984  36.865
       36.746  36.627  36.508  36.389  36.270  36.151  36.032
  11   38.532  38.413  38.294  38.175  38.056  37.937  37.817  37.698  37.579  37.460  37.341  37.222  37.103  36.984  36.865
       36.746  36.627  36.508  36.389  36.270  36.151  36.032
  12   38.532  38.413  38.294  38.175  38.056  37.937  37.817  37.698  37.579  37.460  37.341  37.222  37.103  36.984  36.865
       36.746  36.627  36.508  36.389  36.270  36.151  36.032
  13   38.532  38.413  38.294  38.175  38.056  37.937  37.817  37.698  37.579  37.460  37.341  37.222  37.103  36.984  36.865
       36.746  36.627  36.508  36.389  36.270  36.151  36.032
  14   38.532  38.413  38.294  38.175  38.056  37.937  37.817  37.698  37.579  37.460  37.341  37.222  37.103  36.984  36.865
       36.746  36.627  36.508  36.389  36.270  36.151  36.032
  15   38.532  38.413  38.294  38.175  38.056  37.937  37.817  37.698  37.579  37.460  37.341  37.222  37.103  36.984  36.865
       36.746  36.627  36.508  36.389  36.270  36.151  36.032
  16   38.532  38.413  38.294  38.175  38.056  37.937  37.817  37.698  37.579  37.460  37.341  37.222  37.103  36.984  36.865
       36.746  36.627  36.508  36.389  36.270  36.151  36.032
  17   38.532  38.413  38.294  38.175  38.056  37.937  37.817  37.698  37.579  37.460  37.341  37.222  37.103  36.984  36.865
       36.746  36.627  36.508  36.389  36.270  36.151  36.032
  18   38.532  38.413  38.294  38.175  38.056  37.937  37.817  37.698  37.579  37.460  37.341  37.222  37.103  36.984  36.865
       36.746  36.627  36.508  36.389  36.270  36.151  36.032
  19   38.532  38.413  38.294  38.175  38.056  37.937  37.817  37.698  37.579  37.460  37.341  37.222  37.103  36.984  36.865
       36.746  36.627  36.508  36.389  36.270  36.151  36.032



             MODEL LAYER BOTTOM EL. FOR LAYER   3
 READING ON UNIT   51 WITH FORMAT: (FREE)              

           1       2       3       4       5       6       7       8       9      10      11      12      13      14      15
          16      17      18      19      20      21      22
 ...........................................................................................................................
   1   32.976  32.857  32.738  32.619  32.500  32.381  32.262  32.143  32.024  31.905  31.786  31.667  31.548  31.429  31.310
       31.190  31.071  30.952  30.833  30.714  30.595  30.476
   2   32.976  32.857  32.738  32.619  32.500  32.381  32.262  32.143  32.024  31.905  31.786  31.667  31.548  31.429  31.310
       31.190  31.071  30.952  30.833  30.714  30.595  30.476
   3   32.976  32.857  32.738  32.619  32.500  32.381  32.262  32.143  32.024  31.905  31.786  31.667  31.548  31.429  31.310
       31.190  31.071  30.952  30.833  30.714  30.595  30.476
   4   32.976  32.857  32.738  32.619  32.500  32.381  32.262  32.143  32.024  31.905  31.786  31.667  31.548  31.429  31.310
       31.190  31.071  30.952  30.833  30.714  30.595  30.476
   5   32.976  32.857  32.738  32.619  32.500  32.381  32.262  32.143  32.024  31.905  31.786  31.667  31.548  31.429  31.310
       31.190  31.071  30.952  30.833  30.714  30.595  30.476
   6   32.976  32.857  32.738  32.619  32.500  32.381  32.262  32.143  32.024  31.905  31.786  31.667  31.548  31.429  31.310
       31.190  31.071  30.952  30.833  30.714  30.595  30.476
   7   32.976  32.857  32.738  32.619  32.500  32.381  32.262  32.143  32.024  31.905  31.786  31.667  31.548  31.429  31.310
       31.190  31.071  30.952  30.833  30.714  30.595  30.476
   8   32.976  32.857  32.738  32.619  32.500  32.381  32.262  32.143  32.024  31.905  31.786  31.667  31.548  31.429  31.310
       31.190  31.071  30.952  30.833  30.714  30.595  30.476
   9   32.976  32.857  32.738  32.619  32.500  32.381  32.262  32.143  32.024  31.905  31.786  31.667  31.548  31.429  31.310
       31.190  31.071  30.952  30.833  30.714  30.595  30.476
  10   32.976  32.857  32.738  32.619  32.500  32.381  32.262  32.143  32.024  31.905  31.786  31.667  31.548  31.429  31.310
       31.190  31.071  30.952  30.833  30.714  30.595  30.476
  11   32.976  32.857  32.738  32.619  32.500  32.381  32.262  32.143  32.024  31.905  31.786  31.667  31.548  31.429  31.310
       31.190  31.071  30.952  30.833  30.714  30.595  30.476
  12   32.976  32.857  32.738  32.619  32.500  32.381  32.262  32.143  32.024  31.905  31.786  31.667  31.548  31.429  31.310
       31.190  31.071  30.952  30.833  30.714  30.595  30.476
  13   32.976  32.857  32.738  32.619  32.500  32.381  32.262  32.143  32.024  31.905  31.786  31.667  31.548  31.429  31.310
       31.190  31.071  30.952  30.833  30.714  30.595  30.476
  14   32.976  32.857  32.738  32.619  32.500  32.381  32.262  32.143  32.024  31.905  31.786  31.667  31.548  31.429  31.310
       31.190  31.071  30.952  30.833  30.714  30.595  30.476
  15   32.976  32.857  32.738  32.619  32.500  32.381  32.262  32.143  32.024  31.905  31.786  31.667  31.548  31.429  31.310
       31.190  31.071  30.952  30.833  30.714  30.595  30.476
  16   32.976  32.857  32.738  32.619  32.500  32.381  32.262  32.143  32.024  31.905  31.786  31.667  31.548  31.429  31.310
       31.190  31.071  30.952  30.833  30.714  30.595  30.476
  17   32.976  32.857  32.738  32.619  32.500  32.381  32.262  32.143  32.024  31.905  31.786  31.667  31.548  31.429  31.310
       31.190  31.071  30.952  30.833  30.714  30.595  30.476
  18   32.976  32.857  32.738  32.619  32.500  32.381  32.262  32.143  32.024  31.905  31.786  31.667  31.548  31.429  31.310
       31.190  31.071  30.952  30.833  30.714  30.595  30.476
  19   32.976  32.857  32.738  32.619  32.500  32.381  32.262  32.143  32.024  31.905  31.786  31.667  31.548  31.429  31.310
       31.190  31.071  30.952  30.833  30.714  30.595  30.476



             MODEL LAYER BOTTOM EL. FOR LAYER   4
 READING ON UNIT   51 WITH FORMAT: (FREE)              

           1       2       3       4       5       6       7       8       9      10      11      12      13      14      15
          16      17      18      19      20      21      22
 ...........................................................................................................................
   1   27.421  27.302  27.183  27.063  26.944  26.825  26.706  26.587  26.468  26.349  26.230  26.111  25.992  25.873  25.754
       25.635  25.516  25.397  25.278  25.159  25.040  24.921
   2   27.421  27.302  27.183  27.063  26.944  26.825  26.706  26.587  26.468  26.349  26.230  26.111  25.992  25.873  25.754
       25.635  25.516  25.397  25.278  25.159  25.040  24.921
   3   27.421  27.302  27.183  27.063  26.944  26.825  26.706  26.587  26.468  26.349  26.230  26.111  25.992  25.873  25.754
       25.635  25.516  25.397  25.278  25.159  25.040  24.921
   4   27.421  27.302  27.183  27.063  26.944  26.825  26.706  26.587  26.468  26.349  26.230  26.111  25.992  25.873  25.754
       25.635  25.516  25.397  25.278  25.159  25.040  24.921
   5   27.421  27.302  27.183  27.063  26.944  26.825  26.706  26.587  26.468  26.349  26.230  26.111  25.992  25.873  25.754
       25.635  25.516  25.397  25.278  25.159  25.040  24.921
   6   27.421  27.302  27.183  27.063  26.944  26.825  26.706  26.587  26.468  26.349  26.230  26.111  25.992  25.873  25.754
       25.635  25.516  25.397  25.278  25.159  25.040  24.921
   7   27.421  27.302  27.183  27.063  26.944  26.825  26.706  26.587  26.468  26.349  26.230  26.111  25.992  25.873  25.754
       25.635  25.516  25.397  25.278  25.159  25.040  24.921
   8   27.421  27.302  27.183  27.063  26.944  26.825  26.706  26.587  26.468  26.349  26.230  26.111  25.992  25.873  25.754
       25.635  25.516  25.397  25.278  25.159  25.040  24.921
   9   27.421  27.302  27.183  27.063  26.944  26.825  26.706  26.587  26.468  26.349  26.230  26.111  25.992  25.873  25.754
       25.635  25.516  25.397  25.278  25.159  25.040  24.921
  10   27.421  27.302  27.183  27.063  26.944  26.825  26.706  26.587  26.468  26.349  26.230  26.111  25.992  25.873  25.754
       25.635  25.516  25.397  25.278  25.159  25.040  24.921
  11   27.421  27.302  27.183  27.063  26.944  26.825  26.706  26.587  26.468  26.349  26.230  26.111  25.992  25.873  25.754
       25.635  25.516  25.397  25.278  25.159  25.040  24.921
  12   27.421  27.302  27.183  27.063  26.944  26.825  26.706  26.587  26.468  26.349  26.230  26.111  25.992  25.873  25.754
       25.635  25.516  25.397  25.278  25.159  25.040  24.921
  13   27.421  27.302  27.183  27.063  26.944  26.825  26.706  26.587  26.468  26.349  26.230  26.111  25.992  25.873  25.754
       25.635  25.516  25.397  25.278  25.159  25.040  24.921
  14   27.421  27.302  27.183  27.063  26.944  26.825  26.706  26.587  26.468  26.349  26.230  26.111  25.992  25.873  25.754
       25.635  25.516  25.397  25.278  25.159  25.040  24.921
  15   27.421  27.302  27.183  27.063  26.944  26.825  26.706  26.587  26.468  26.349  26.230  26.111  25.992  25.873  25.754
       25.635  25.516  25.397  25.278  25.159  25.040  24.921
  16   27.421  27.302  27.183  27.063  26.944  26.825  26.706  26.587  26.468  26.349  26.230  26.111  25.992  25.873  25.754
       25.635  25.516  25.397  25.278  25.159  25.040  24.921
  17   27.421  27.302  27.183  27.063  26.944  26.825  26.706  26.587  26.468  26.349  26.230  26.111  25.992  25.873  25.754
       25.635  25.516  25.397  25.278  25.159  25.040  24.921
  18   27.421  27.302  27.183  27.063  26.944  26.825  26.706  26.587  26.468  26.349  26.230  26.111  25.992  25.873  25.754
       25.635  25.516  25.397  25.278  25.159  25.040  24.921
  19   27.421  27.302  27.183  27.063  26.944  26.825  26.706  26.587  26.468  26.349  26.230  26.111  25.992  25.873  25.754
       25.635  25.516  25.397  25.278  25.159  25.040  24.921



             MODEL LAYER BOTTOM EL. FOR LAYER   5
 READING ON UNIT   51 WITH FORMAT: (FREE)              

           1       2       3       4       5       6       7       8       9      10      11      12      13      14      15
          16      17      18      19      20      21      22
 ...........................................................................................................................
   1   21.865  21.746  21.627  21.508  21.389  21.270  21.151  21.032  20.913  20.794  20.675  20.556  20.437  20.317  20.198
       20.079  19.960  19.841  19.722  19.603  19.484  19.365
   2   21.865  21.746  21.627  21.508  21.389  21.270  21.151  21.032  20.913  20.794  20.675  20.556  20.437  20.317  20.198
       20.079  19.960  19.841  19.722  19.603  19.484  19.365
   3   21.865  21.746  21.627  21.508  21.389  21.270  21.151  21.032  20.913  20.794  20.675  20.556  20.437  20.317  20.198
       20.079  19.960  19.841  19.722  19.603  19.484  19.365
   4   21.865  21.746  21.627  21.508  21.389  21.270  21.151  21.032  20.913  20.794  20.675  20.556  20.437  20.317  20.198
       20.079  19.960  19.841  19.722  19.603  19.484  19.365
   5   21.865  21.746  21.627  21.508  21.389  21.270  21.151  21.032  20.913  20.794  20.675  20.556  20.437  20.317  20.198
       20.079  19.960  19.841  19.722  19.603  19.484  19.365
   6   21.865  21.746  21.627  21.508  21.389  21.270  21.151  21.032  20.913  20.794  20.675  20.556  20.437  20.317  20.198
       20.079  19.960  19.841  19.722  19.603  19.484  19.365
   7   21.865  21.746  21.627  21.508  21.389  21.270  21.151  21.032  20.913  20.794  20.675  20.556  20.437  20.317  20.198
       20.079  19.960  19.841  19.722  19.603  19.484  19.365
   8   21.865  21.746  21.627  21.508  21.389  21.270  21.151  21.032  20.913  20.794  20.675  20.556  20.437  20.317  20.198
       20.079  19.960  19.841  19.722  19.603  19.484  19.365
   9   21.865  21.746  21.627  21.508  21.389  21.270  21.151  21.032  20.913  20.794  20.675  20.556  20.437  20.317  20.198
       20.079  19.960  19.841  19.722  19.603  19.484  19.365
  10   21.865  21.746  21.627  21.508  21.389  21.270  21.151  21.032  20.913  20.794  20.675  20.556  20.437  20.317  20.198
       20.079  19.960  19.841  19.722  19.603  19.484  19.365
  11   21.865  21.746  21.627  21.508  21.389  21.270  21.151  21.032  20.913  20.794  20.675  20.556  20.437  20.317  20.198
       20.079  19.960  19.841  19.722  19.603  19.484  19.365
  12   21.865  21.746  21.627  21.508  21.389  21.270  21.151  21.032  20.913  20.794  20.675  20.556  20.437  20.317  20.198
       20.079  19.960  19.841  19.722  19.603  19.484  19.365
  13   21.865  21.746  21.627  21.508  21.389  21.270  21.151  21.032  20.913  20.794  20.675  20.556  20.437  20.317  20.198
       20.079  19.960  19.841  19.722  19.603  19.484  19.365
  14   21.865  21.746  21.627  21.508  21.389  21.270  21.151  21.032  20.913  20.794  20.675  20.556  20.437  20.317  20.198
       20.079  19.960  19.841  19.722  19.603  19.484  19.365
  15   21.865  21.746  21.627  21.508  21.389  21.270  21.151  21.032  20.913  20.794  20.675  20.556  20.437  20.317  20.198
       20.079  19.960  19.841  19.722  19.603  19.484  19.365
  16   21.865  21.746  21.627  21.508  21.389  21.270  21.151  21.032  20.913  20.794  20.675  20.556  20.437  20.317  20.198
       20.079  19.960  19.841  19.722  19.603  19.484  19.365
  17   21.865  21.746  21.627  21.508  21.389  21.270  21.151  21.032  20.913  20.794  20.675  20.556  20.437  20.317  20.198
       20.079  19.960  19.841  19.722  19.603  19.484  19.365
  18   21.865  21.746  21.627  21.508  21.389  21.270  21.151  21.032  20.913  20.794  20.675  20.556  20.437  20.317  20.198
       20.079  19.960  19.841  19.722  19.603  19.484  19.365
  19   21.865  21.746  21.627  21.508  21.389  21.270  21.151  21.032  20.913  20.794  20.675  20.556  20.437  20.317  20.198
       20.079  19.960  19.841  19.722  19.603  19.484  19.365


 STRESS PERIOD     LENGTH       TIME STEPS     MULTIPLIER FOR DELT    SS FLAG
 ----------------------------------------------------------------------------
        1         1.000000          1                    1.000         SS

 STEADY-STATE SIMULATION



 
 #Meandering River - 5 layers, lgr natural gradient - 02/15/2006                 
 THE FREE FORMAT OPTION HAS BEEN SELECTED
 CALCULATE FLOW BETWEEN ADJACENT CONSTANT-HEAD CELLS

 OPENING FILE ON UNIT   99:
 ex3_child.ib                                                                                                                                                                                            



                     BOUNDARY ARRAY FOR LAYER   1
 READING ON UNIT   99 WITH FORMAT: (FREE)              

         1    2    3    4    5    6    7    8    9   10   11   12   13   14   15   16   17   18   19   20   21   22
 ..................................................................................................................
   1   -59  -59  -59  -59  -59  -59  -59  -59  -59  -59  -59  -59  -59  -59  -59  -59  -59  -59  -59  -59  -59  -59
   2   -59    1    1    1    1    1    1    1    1    1    1    1    1    1    1    1    1    1    1    1    1  -59
   3   -59    1    1    1    1    1    1    1    1    1    1    1    1    1    1    1    1    1    1    1    1  -59
   4   -59    1    1    1    1    1    1    1    1    1    1    1    1    1    1    1    1    1    1    1    1  -59
   5   -59    1    1    1    1    1    1    1    1    1    1    1    1    1    1    1    1    1    1    1    1  -59
   6   -59    1    1    1    1    1    1    1    1    1    1    1    1    1    1    1    1    1    1    1    1  -59
   7   -59    1    1    1    1    1    1    1    1    1    1    1    1    1    1    1    1    1    1    1    1  -59
   8   -59    1    1    1    1    1    1    1    1    1    1    1    1    1    1    1    1    1    1    1    1  -59
   9   -59    1    1    1    1    1    1    1    1    1    1    1    1    1    1    1    1    1    1    1    1  -59
  10   -59    1    1    1    1    1    1    1    1    1    1    1    1    1    1    1    1    1    1    1    1  -59
  11   -59    1    1    1    1    1    1    1    1    1    1    1    1    1    1    1    1    1    1    1    1  -59
  12   -59    1    1    1    1    1    1    1    1    1    1    1    1    1    1    1    1    1    1    1    1  -59
  13   -59    1    1    1    1    1    1    1    1    1    1    1    1    1    1    1    1    1    1    1    1  -59
  14   -59    1    1    1    1    1    1    1    1    1    1    1    1    1    1    1    1    1    1    1    1  -59
  15   -59    1    1    1    1    1    1    1    1    1    1    1    1    1    1    1    1    1    1    1    1  -59
  16   -59    1    1    1    1    1    1    1    1    1    1    1    1    1    1    1    1    1    1    1    1  -59
  17   -59    1    1    1    1    1    1    1    1    1    1    1    1    1    1    1    1    1    1    1    1  -59
  18   -59    1    1    1    1    1    1    1    1    1    1    1    1    1    1    1    1    1    1    1    1  -59
  19   -59  -59  -59  -59  -59  -59  -59  -59  -59  -59  -59  -59  -59  -59  -59  -59  -59  -59  -59  -59  -59  -59

 OPENING FILE ON UNIT   99:
 ex3_child.ib                                                                                                                                                                                            



                     BOUNDARY ARRAY FOR LAYER   2
 READING ON UNIT   99 WITH FORMAT: (FREE)              

         1    2    3    4    5    6    7    8    9   10   11   12   13   14   15   16   17   18   19   20   21   22
 ..................................................................................................................
   1   -59  -59  -59  -59  -59  -59  -59  -59  -59  -59  -59  -59  -59  -59  -59  -59  -59  -59  -59  -59  -59  -59
   2   -59    1    1    1    1    1    1    1    1    1    1    1    1    1    1    1    1    1    1    1    1  -59
   3   -59    1    1    1    1    1    1    1    1    1    1    1    1    1    1    1    1    1    1    1    1  -59
   4   -59    1    1    1    1    1    1    1    1    1    1    1    1    1    1    1    1    1    1    1    1  -59
   5   -59    1    1    1    1    1    1    1    1    1    1    1    1    1    1    1    1    1    1    1    1  -59
   6   -59    1    1    1    1    1    1    1    1    1    1    1    1    1    1    1    1    1    1    1    1  -59
   7   -59    1    1    1    1    1    1    1    1    1    1    1    1    1    1    1    1    1    1    1    1  -59
   8   -59    1    1    1    1    1    1    1    1    1    1    1    1    1    1    1    1    1    1    1    1  -59
   9   -59    1    1    1    1    1    1    1    1    1    1    1    1    1    1    1    1    1    1    1    1  -59
  10   -59    1    1    1    1    1    1    1    1    1    1    1    1    1    1    1    1    1    1    1    1  -59
  11   -59    1    1    1    1    1    1    1    1    1    1    1    1    1    1    1    1    1    1    1    1  -59
  12   -59    1    1    1    1    1    1    1    1    1    1    1    1    1    1    1    1    1    1    1    1  -59
  13   -59    1    1    1    1    1    1    1    1    1    1    1    1    1    1    1    1    1    1    1    1  -59
  14   -59    1    1    1    1    1    1    1    1    1    1    1    1    1    1    1    1    1    1    1    1  -59
  15   -59    1    1    1    1    1    1    1    1    1    1    1    1    1    1    1    1    1    1    1    1  -59
  16   -59    1    1    1    1    1    1    1    1    1    1    1    1    1    1    1    1    1    1    1    1  -59
  17   -59    1    1    1    1    1    1    1    1    1    1    1    1    1    1    1    1    1    1    1    1  -59
  18   -59    1    1    1    1    1    1    1    1    1    1    1    1    1    1    1    1    1    1    1    1  -59
  19   -59  -59  -59  -59  -59  -59  -59  -59  -59  -59  -59  -59  -59  -59  -59  -59  -59  -59  -59  -59  -59  -59

 OPENING FILE ON UNIT   99:
 ex3_child.ib                                                                                                                                                                                            



                     BOUNDARY ARRAY FOR LAYER   3
 READING ON UNIT   99 WITH FORMAT: (FREE)              

         1    2    3    4    5    6    7    8    9   10   11   12   13   14   15   16   17   18   19   20   21   22
 ..................................................................................................................
   1   -59  -59  -59  -59  -59  -59  -59  -59  -59  -59  -59  -59  -59  -59  -59  -59  -59  -59  -59  -59  -59  -59
   2   -59    1    1    1    1    1    1    1    1    1    1    1    1    1    1    1    1    1    1    1    1  -59
   3   -59    1    1    1    1    1    1    1    1    1    1    1    1    1    1    1    1    1    1    1    1  -59
   4   -59    1    1    1    1    1    1    1    1    1    1    1    1    1    1    1    1    1    1    1    1  -59
   5   -59    1    1    1    1    1    1    1    1    1    1    1    1    1    1    1    1    1    1    1    1  -59
   6   -59    1    1    1    1    1    1    1    1    1    1    1    1    1    1    1    1    1    1    1    1  -59
   7   -59    1    1    1    1    1    1    1    1    1    1    1    1    1    1    1    1    1    1    1    1  -59
   8   -59    1    1    1    1    1    1    1    1    1    1    1    1    1    1    1    1    1    1    1    1  -59
   9   -59    1    1    1    1    1    1    1    1    1    1    1    1    1    1    1    1    1    1    1    1  -59
  10   -59    1    1    1    1    1    1    1    1    1    1    1    1    1    1    1    1    1    1    1    1  -59
  11   -59    1    1    1    1    1    1    1    1    1    1    1    1    1    1    1    1    1    1    1    1  -59
  12   -59    1    1    1    1    1    1    1    1    1    1    1    1    1    1    1    1    1    1    1    1  -59
  13   -59    1    1    1    1    1    1    1    1    1    1    1    1    1    1    1    1    1    1    1    1  -59
  14   -59    1    1    1    1    1    1    1    1    1    1    1    1    1    1    1    1    1    1    1    1  -59
  15   -59    1    1    1    1    1    1    1    1    1    1    1    1    1    1    1    1    1    1    1    1  -59
  16   -59    1    1    1    1    1    1    1    1    1    1    1    1    1    1    1    1    1    1    1    1  -59
  17   -59    1    1    1    1    1    1    1    1    1    1    1    1    1    1    1    1    1    1    1    1  -59
  18   -59    1    1    1    1    1    1    1    1    1    1    1    1    1    1    1    1    1    1    1    1  -59
  19   -59  -59  -59  -59  -59  -59  -59  -59  -59  -59  -59  -59  -59  -59  -59  -59  -59  -59  -59  -59  -59  -59

 OPENING FILE ON UNIT   99:
 ex3_child.ib                                                                                                                                                                                            



                     BOUNDARY ARRAY FOR LAYER   4
 READING ON UNIT   99 WITH FORMAT: (FREE)              

         1    2    3    4    5    6    7    8    9   10   11   12   13   14   15   16   17   18   19   20   21   22
 ..................................................................................................................
   1   -59  -59  -59  -59  -59  -59  -59  -59  -59  -59  -59  -59  -59  -59  -59  -59  -59  -59  -59  -59  -59  -59
   2   -59    1    1    1    1    1    1    1    1    1    1    1    1    1    1    1    1    1    1    1    1  -59
   3   -59    1    1    1    1    1    1    1    1    1    1    1    1    1    1    1    1    1    1    1    1  -59
   4   -59    1    1    1    1    1    1    1    1    1    1    1    1    1    1    1    1    1    1    1    1  -59
   5   -59    1    1    1    1    1    1    1    1    1    1    1    1    1    1    1    1    1    1    1    1  -59
   6   -59    1    1    1    1    1    1    1    1    1    1    1    1    1    1    1    1    1    1    1    1  -59
   7   -59    1    1    1    1    1    1    1    1    1    1    1    1    1    1    1    1    1    1    1    1  -59
   8   -59    1    1    1    1    1    1    1    1    1    1    1    1    1    1    1    1    1    1    1    1  -59
   9   -59    1    1    1    1    1    1    1    1    1    1    1    1    1    1    1    1    1    1    1    1  -59
  10   -59    1    1    1    1    1    1    1    1    1    1    1    1    1    1    1    1    1    1    1    1  -59
  11   -59    1    1    1    1    1    1    1    1    1    1    1    1    1    1    1    1    1    1    1    1  -59
  12   -59    1    1    1    1    1    1    1    1    1    1    1    1    1    1    1    1    1    1    1    1  -59
  13   -59    1    1    1    1    1    1    1    1    1    1    1    1    1    1    1    1    1    1    1    1  -59
  14   -59    1    1    1    1    1    1    1    1    1    1    1    1    1    1    1    1    1    1    1    1  -59
  15   -59    1    1    1    1    1    1    1    1    1    1    1    1    1    1    1    1    1    1    1    1  -59
  16   -59    1    1    1    1    1    1    1    1    1    1    1    1    1    1    1    1    1    1    1    1  -59
  17   -59    1    1    1    1    1    1    1    1    1    1    1    1    1    1    1    1    1    1    1    1  -59
  18   -59    1    1    1    1    1    1    1    1    1    1    1    1    1    1    1    1    1    1    1    1  -59
  19   -59  -59  -59  -59  -59  -59  -59  -59  -59  -59  -59  -59  -59  -59  -59  -59  -59  -59  -59  -59  -59  -59

           BOUNDARY ARRAY =            -59 FOR LAYER   5

 AQUIFER HEAD WILL BE SET TO  -333.00     AT ALL NO-FLOW NODES (IBOUND=0).

             INITIAL HEAD =   47.0000     FOR LAYER   1

             INITIAL HEAD =   47.0000     FOR LAYER   2

             INITIAL HEAD =   47.0000     FOR LAYER   3

             INITIAL HEAD =   47.0000     FOR LAYER   4

             INITIAL HEAD =   47.0000     FOR LAYER   5

 OUTPUT CONTROL IS SPECIFIED ONLY AT TIME STEPS FOR WHICH OUTPUT IS DESIRED
 HEAD PRINT FORMAT CODE IS   6    DRAWDOWN PRINT FORMAT CODE IS   0
 HEADS WILL BE SAVED ON UNIT   31    DRAWDOWNS WILL BE SAVED ON UNIT    0

 LGR -- LOCAL GRID REFINEMENT, VERSION 1.2.0 05/18/2010
        INPUT READ FOR MODEL  2 DEFINED BY NAME FILE ex3_child.nam

 LOCAL GRID REFINEMENT IS ACTIVE FOR CHILD ONLY
               STARTING HEADS FROM PARENT WILL BE USED: ISHFLG =   1
               VALUE IN IBOUND INDICATING BOUNDARY INTERFACE =  -59
               BOUNDARY HEADS WILL BE SAVED ON UNIT  80
               BOUNDARY FLUXES WILL BE SAVED ON UNIT  81
               MAX NUMBER OF LGR ITERATIONS = 15
               LGR ITERATION RESULTS WRITTEN TO SCREEN: IOUTLGR =  -1

               WEIGHTING FACTORS FOR RELAXATION
               RELAXH(HEAD) RELAXF(FLUX)
               -------------------------
               0.400E+00      0.400E+00

               CLOSURE CRITERIA FOR LGR ITERATIONS
               HCLOSELGR       FCLOSELGR
               -------------------------
               5.000E-03      5.000E-02

               STARTING LAYER, ROW, COLUMN=   1,   6,   2
               ENDING LAYER, ROW, COLUMN=     2,  12,   9
               NCPP: NUMBER OF CHILD CELLS PER WIDTH OF PARENT CELL= 3
               NCPPL: NUMBER OF CHILD LAYERS IN LAYER  1 OF PARENT = 3
               NCPPL: NUMBER OF CHILD LAYERS IN LAYER  2 OF PARENT = 3

 BCF -- BLOCK-CENTERED FLOW PACKAGE, VERSION 7, 5/2/2005
         INPUT READ FROM UNIT 21
 STEADY-STATE SIMULATION
 CELL-BY-CELL FLOWS WILL BE SAVED ON UNIT 41
 HEAD AT CELLS THAT CONVERT TO DRY=  -888.00    
 WETTING CAPABILITY IS NOT ACTIVE
      LAYER  LAYER-TYPE CODE     INTERBLOCK T
      --------------------------------------------
         1            1          0 -- HARMONIC    
         2            3          0 -- HARMONIC    
         3            3          0 -- HARMONIC    
         4            3          0 -- HARMONIC    
         5            3          0 -- HARMONIC    

 COLUMN TO ROW ANISOTROPY =   1.00000    

    HYD. COND. ALONG ROWS =   1.00000     FOR LAYER   1

 VERT HYD COND /THICKNESS =  0.180000     FOR LAYER   1

    HYD. COND. ALONG ROWS =   1.00000     FOR LAYER   2

 VERT HYD COND /THICKNESS =  0.180000     FOR LAYER   2

    HYD. COND. ALONG ROWS =   1.00000     FOR LAYER   3

 VERT HYD COND /THICKNESS =  0.180000     FOR LAYER   3

    HYD. COND. ALONG ROWS =   1.00000     FOR LAYER   4

 VERT HYD COND /THICKNESS =  0.180000     FOR LAYER   4

    HYD. COND. ALONG ROWS =   1.00000     FOR LAYER   5

 RIV -- RIVER PACKAGE, VERSION 7, 5/2/2005 INPUT READ FROM UNIT   25
 No named parameters
 MAXIMUM OF     94 ACTIVE RIVER REACHES AT ONE TIME
 CELL-BY-CELL FLOWS WILL BE PRINTED WHEN ICBCFL NOT 0
 AUXILIARY RIVER VARIABLE: IFACE           
 AUXILIARY RIVER VARIABLE: CONDFACT        
 AUXILIARY RIVER VARIABLE: CELLGRP         


     0 River parameters

 PCG -- CONJUGATE-GRADIENT SOLUTION PACKAGE, VERSION 7, 5/2/2005
 MAXIMUM OF     25 CALLS OF SOLUTION ROUTINE
 MAXIMUM OF    500 INTERNAL ITERATIONS PER CALL TO SOLUTION ROUTINE
 MATRIX PRECONDITIONING TYPE :    1



                                    SOLUTION BY THE CONJUGATE-GRADIENT METHOD
                                   -------------------------------------------
                    MAXIMUM NUMBER OF CALLS TO PCG ROUTINE =       25
                        MAXIMUM ITERATIONS PER CALL TO PCG =      500
                               MATRIX PRECONDITIONING TYPE =        1
        RELAXATION FACTOR (ONLY USED WITH PRECOND. TYPE 1) =    0.10000E+01
 PARAMETER OF POLYNOMIAL PRECOND. = 2 (2) OR IS CALCULATED :        0
                         HEAD CHANGE CRITERION FOR CLOSURE =    0.10000E-07
                     RESIDUAL CHANGE CRITERION FOR CLOSURE =    0.10000E-07
            PCG HEAD AND RESIDUAL CHANGE PRINTOUT INTERVAL =      999
     PRINTING FROM SOLVER IS LIMITED(1) OR SUPPRESSED (>1) =        1
                            STEADY-STATE DAMPING PARAMETER =    0.10000E+01
                               TRANSIENT DAMPING PARAMETER =    0.10000E+01
1
                            STRESS PERIOD NO.    1, LENGTH =   1.000000    
                            -----------------------------------------------

                              NUMBER OF TIME STEPS =     1

                               MULTIPLIER FOR DELT =     1.000

                            INITIAL TIME STEP SIZE =   1.000000    

 REACH NO.  LAYER   ROW   COL     STAGE      CONDUCTANCE     BOTTOM EL.         IFACE           CONDFACT        CELLGRP         
 -------------------------------------------------------------------------------------------------------------------------------
      1      1      1      7       49.22           24.50           48.72           6.000           24.50           1.000    
      2      1      2      7       49.18           51.10           48.68           6.000           25.55           3.000    
      3      1      2      6       49.16           2.936           48.66           6.000           1.468           2.000    
      4      1      3      6       49.14           49.28           48.64           6.000           24.64           4.000    
      5      1      4      6       49.10           63.93           48.60           6.000           31.97           10.00    
      6      1      4      5       49.06           52.75           48.56           6.000           26.38           9.000    
      7      1      5      5       49.03           23.55           48.53           6.000           11.77           14.00    
      8      1      5      4       49.00           45.84           48.50           6.000           22.92           13.00    
      9      1      6      4       48.97           49.90           48.47           6.000           24.95           18.00    
     10      1      7      4       48.93           47.76           48.43           6.000           23.88           24.00    
     11      1      8      4       48.90           46.38           48.40           6.000           23.19           30.00    
     12      1      9      4       48.86           49.52           48.36           6.000           24.76           36.00    
     13      1     10      4       48.83           49.82           48.33           6.000           24.91           47.00    
     14      1     10      5       48.78           68.73           48.28           6.000           34.37           48.00    
     15      1     10      6       48.73           75.67           48.23           6.000           37.83           49.00    
     16      1     10      7       48.70           13.48           48.20           6.000           6.740           50.00    
     17      1      9      7       48.67           50.30           48.17           6.000           25.15           37.00    
     18      1      8      7       48.64           45.78           48.14           6.000           22.89           31.00    
     19      1      7      7       48.60           49.26           48.10           6.000           24.63           25.00    
     20      1      6      7       48.57           48.21           48.07           6.000           24.10           19.00    
     21      1      6      8       48.52           71.75           48.02           6.000           35.87           20.00    
     22      1      6      9       48.48           40.20           47.98           6.000           20.10           21.00    
     23      1      7      9       48.44           71.27           47.94           6.000           35.64           26.00    
     24      1      7     10       48.39           78.55           47.89           6.000           39.27           27.00    
     25      1      8     10       48.35           15.70           47.85           6.000           7.848           32.00    
     26      1      8     11       48.34           30.96           47.84           6.000           15.48           33.00    
     27      1      9     11       48.31           45.77           47.81           6.000           22.88           38.00    
     28      1     10     11       48.29           13.23           47.79           6.000           6.613           53.00    
     29      1     10     10       48.26           63.99           47.76           6.000           32.00           51.00    
     30      1     11     10       48.23           18.88           47.73           6.000           9.439           61.00    
     31      1     11      9       48.19           70.77           47.69           6.000           35.39           60.00    
     32      1     11      8       48.14           70.94           47.64           6.000           35.47           59.00    
     33      1     11      7       48.10           47.00           47.60           6.000           23.50           58.00    
     34      1     12      7       48.07           36.83           47.57           6.000           18.41           66.00    
     35      1     12      6       48.05           24.03           47.55           6.000           12.02           65.00    
     36      1     13      6       48.02           49.38           47.52           6.000           24.69           71.00    
     37      1     14      6       47.98           46.21           47.48           6.000           23.11           76.00    
     38      1     15      6       47.95           47.40           47.45           6.000           23.70           81.00    
     39      1     16      6       47.92           39.19           47.42           6.000           19.60           86.00    
     40      1     16      7       47.90           11.51           47.40           6.000           5.756           87.00    
     41      1     17      7       47.87           68.85           47.37           6.000           34.42           93.00    
     42      1     17      8       47.82           72.26           47.32           6.000           36.13           94.00    
     43      1     17      9       47.79           14.88           47.29           6.000           7.442           95.00    
     44      1     16      9       47.75           71.13           47.25           6.000           35.57           88.00    
     45      1     16     10       47.73           3.232           47.23           6.000           1.616           89.00    
     46      1     15     10       47.70           64.63           47.20           6.000           32.32           82.00    
     47      1     14     10       47.66           40.26           47.16           6.000           20.13           77.00    
     48      1     14     11       47.64           13.05           47.14           6.000           6.524           78.00    
     49      1     13     11       47.62           51.15           47.12           6.000           25.58           72.00    
     50      1     12     11       47.58           51.15           47.08           6.000           25.58           67.00    
     51      1     11     11       47.55           48.61           47.05           6.000           24.30           62.00    
     52      1     10     11       47.53           3.832           47.03           6.000           1.916           52.00    
     53      1     10     12       47.51           43.86           47.01           6.000           21.93           54.00    
     54      1      9     12       47.48           47.69           46.98           6.000           23.85           39.00    
     55      1      8     12       47.44           46.86           46.94           6.000           23.43           34.00    
     56      1      7     12       47.41           46.50           46.91           6.000           23.25           28.00    
     57      1      6     12       47.37           46.91           46.87           6.000           23.46           22.00    
     58      1      5     12       47.34           30.34           46.84           6.000           15.17           15.00    
     59      1      5     13       47.33           22.39           46.83           6.000           11.20           16.00    
     60      1      4     13       47.29           69.86           46.79           6.000           34.93           11.00    
     61      1      3     13       47.26           8.899           46.76           6.000           4.449           5.000    
     62      1      3     14       47.23           72.07           46.73           6.000           36.03           6.000    
     63      1      3     15       47.18           76.73           46.68           6.000           38.37           7.000    
     64      1      3     16       47.15           1.753           46.65           6.000          0.8767           8.000    
     65      1      4     16       47.13           60.12           46.63           6.000           30.06           12.00    
     66      1      5     16       47.09           50.70           46.59           6.000           25.35           17.00    
     67      1      6     16       47.05           47.11           46.55           6.000           23.55           23.00    
     68      1      7     16       47.02           49.38           46.52           6.000           24.69           29.00    
     69      1      8     16       46.98           52.15           46.48           6.000           26.07           35.00    
     70      1      9     16       46.95           27.09           46.45           6.000           13.54           41.00    
     71      1      9     15       46.93           26.61           46.43           6.000           13.30           40.00    
     72      1     10     15       46.90           56.29           46.40           6.000           28.15           55.00    
     73      1     11     15       46.86           48.75           46.36           6.000           24.37           63.00    
     74      1     12     15       46.83           46.43           46.33           6.000           23.21           68.00    
     75      1     13     15       46.79           46.60           46.29           6.000           23.30           73.00    
     76      1     14     15       46.76           49.26           46.26           6.000           24.63           79.00    
     77      1     15     15       46.72           55.43           46.22           6.000           27.72           83.00    
     78      1     15     16       46.70           3.529           46.20           6.000           1.765           84.00    
     79      1     16     16       46.67           79.10           46.17           6.000           39.55           90.00    
     80      1     16     17       46.61           74.29           46.11           6.000           37.14           91.00    
     81      1     16     18       46.57           29.89           46.07           6.000           14.94           92.00    
     82      1     15     18       46.54           49.70           46.04           6.000           24.85           85.00    
     83      1     14     18       46.51           47.47           46.01           6.000           23.74           80.00    
     84      1     13     18       46.48           31.94           45.98           6.000           15.97           74.00    
     85      1     13     19       46.46           21.27           45.96           6.000           10.63           75.00    
     86      1     12     19       46.44           22.85           45.94           6.000           11.43           70.00    
     87      1     12     18       46.42           40.02           45.92           6.000           20.01           69.00    
     88      1     11     18       46.39           49.28           45.89           6.000           24.64           64.00    
     89      1     10     18       46.35           55.92           45.85           6.000           27.96           56.00    
     90      1      9     18       46.32           9.291           45.82           6.000           4.645           42.00    
     91      1      9     19       46.29           73.44           45.79           6.000           36.72           43.00    
     92      1      9     20       46.24           68.94           45.74           6.000           34.47           44.00    
     93      1      9     21       46.19           69.71           45.69           6.000           34.85           45.00    
     94      1      9     22       46.14           36.49           45.64           6.000           36.49           46.00    

     94 RIVER REACHES
 
 SOLVING FOR HEAD 


     3 CALLS TO PCG ROUTINE FOR TIME STEP   1 IN STRESS PERIOD    1
     5 TOTAL ITERATIONS


     3 CALLS TO PCG ROUTINE FOR TIME STEP   1 IN STRESS PERIOD    1
    10 TOTAL ITERATIONS


     5 CALLS TO PCG ROUTINE FOR TIME STEP   1 IN STRESS PERIOD    1
    32 TOTAL ITERATIONS


     2 CALLS TO PCG ROUTINE FOR TIME STEP   1 IN STRESS PERIOD    1
     4 TOTAL ITERATIONS


     3 CALLS TO PCG ROUTINE FOR TIME STEP   1 IN STRESS PERIOD    1
    10 TOTAL ITERATIONS


     5 CALLS TO PCG ROUTINE FOR TIME STEP   1 IN STRESS PERIOD    1
    32 TOTAL ITERATIONS


     2 CALLS TO PCG ROUTINE FOR TIME STEP   1 IN STRESS PERIOD    1
     3 TOTAL ITERATIONS


     3 CALLS TO PCG ROUTINE FOR TIME STEP   1 IN STRESS PERIOD    1
    10 TOTAL ITERATIONS


     6 CALLS TO PCG ROUTINE FOR TIME STEP   1 IN STRESS PERIOD    1
    33 TOTAL ITERATIONS


     2 CALLS TO PCG ROUTINE FOR TIME STEP   1 IN STRESS PERIOD    1
     3 TOTAL ITERATIONS


     3 CALLS TO PCG ROUTINE FOR TIME STEP   1 IN STRESS PERIOD    1
    10 TOTAL ITERATIONS


    25 CALLS TO PCG ROUTINE FOR TIME STEP   1 IN STRESS PERIOD    1
    70 TOTAL ITERATIONS


     2 CALLS TO PCG ROUTINE FOR TIME STEP   1 IN STRESS PERIOD    1
     3 TOTAL ITERATIONS


     3 CALLS TO PCG ROUTINE FOR TIME STEP   1 IN STRESS PERIOD    1
    10 TOTAL ITERATIONS


    25 CALLS TO PCG ROUTINE FOR TIME STEP   1 IN STRESS PERIOD    1
    71 TOTAL ITERATIONS


     2 CALLS TO PCG ROUTINE FOR TIME STEP   1 IN STRESS PERIOD    1
     3 TOTAL ITERATIONS


     3 CALLS TO PCG ROUTINE FOR TIME STEP   1 IN STRESS PERIOD    1
    10 TOTAL ITERATIONS


     5 CALLS TO PCG ROUTINE FOR TIME STEP   1 IN STRESS PERIOD    1
    30 TOTAL ITERATIONS


     2 CALLS TO PCG ROUTINE FOR TIME STEP   1 IN STRESS PERIOD    1
     3 TOTAL ITERATIONS


     3 CALLS TO PCG ROUTINE FOR TIME STEP   1 IN STRESS PERIOD    1
    10 TOTAL ITERATIONS


     5 CALLS TO PCG ROUTINE FOR TIME STEP   1 IN STRESS PERIOD    1
    29 TOTAL ITERATIONS


     2 CALLS TO PCG ROUTINE FOR TIME STEP   1 IN STRESS PERIOD    1
     3 TOTAL ITERATIONS


     3 CALLS TO PCG ROUTINE FOR TIME STEP   1 IN STRESS PERIOD    1
    10 TOTAL ITERATIONS


     5 CALLS TO PCG ROUTINE FOR TIME STEP   1 IN STRESS PERIOD    1
    30 TOTAL ITERATIONS


     2 CALLS TO PCG ROUTINE FOR TIME STEP   1 IN STRESS PERIOD    1
     3 TOTAL ITERATIONS


     3 CALLS TO PCG ROUTINE FOR TIME STEP   1 IN STRESS PERIOD    1
    10 TOTAL ITERATIONS


     5 CALLS TO PCG ROUTINE FOR TIME STEP   1 IN STRESS PERIOD    1
    30 TOTAL ITERATIONS


     2 CALLS TO PCG ROUTINE FOR TIME STEP   1 IN STRESS PERIOD    1
     3 TOTAL ITERATIONS


     3 CALLS TO PCG ROUTINE FOR TIME STEP   1 IN STRESS PERIOD    1
     9 TOTAL ITERATIONS


    25 CALLS TO PCG ROUTINE FOR TIME STEP   1 IN STRESS PERIOD    1
    70 TOTAL ITERATIONS


     2 CALLS TO PCG ROUTINE FOR TIME STEP   1 IN STRESS PERIOD    1
     3 TOTAL ITERATIONS


     3 CALLS TO PCG ROUTINE FOR TIME STEP   1 IN STRESS PERIOD    1
     9 TOTAL ITERATIONS


    25 CALLS TO PCG ROUTINE FOR TIME STEP   1 IN STRESS PERIOD    1
    71 TOTAL ITERATIONS


     2 CALLS TO PCG ROUTINE FOR TIME STEP   1 IN STRESS PERIOD    1
     3 TOTAL ITERATIONS


     3 CALLS TO PCG ROUTINE FOR TIME STEP   1 IN STRESS PERIOD    1
     9 TOTAL ITERATIONS


     5 CALLS TO PCG ROUTINE FOR TIME STEP   1 IN STRESS PERIOD    1
    29 TOTAL ITERATIONS

 OUTPUT CONTROL FOR STRESS PERIOD    1   TIME STEP   1
    PRINT HEAD FOR ALL LAYERS
    SAVE HEAD FOR ALL LAYERS
    PRINT BUDGET
    SAVE BUDGET
 UBUDSV SAVING "   CONSTANT HEAD" ON UNIT 41 AT TIME STEP  1, STRESS PERIOD    1
 UBUDSV SAVING "FLOW RIGHT FACE " ON UNIT 41 AT TIME STEP  1, STRESS PERIOD    1
 UBUDSV SAVING "FLOW FRONT FACE " ON UNIT 41 AT TIME STEP  1, STRESS PERIOD    1
 UBUDSV SAVING "FLOW LOWER FACE " ON UNIT 41 AT TIME STEP  1, STRESS PERIOD    1

    RIVER LEAKAGE   PERIOD    1   STEP   1
 REACH      2   LAYER   1   ROW     2   COL     7   RATE    7.44187    
 REACH      3   LAYER   1   ROW     2   COL     6   RATE   0.293700    
 REACH      4   LAYER   1   ROW     3   COL     6   RATE    4.30850    
 REACH      5   LAYER   1   ROW     4   COL     6   RATE    5.76349    
 REACH      6   LAYER   1   ROW     4   COL     5   RATE   0.807954    
 REACH      7   LAYER   1   ROW     5   COL     5   RATE    1.08906    
 REACH      8   LAYER   1   ROW     5   COL     4   RATE   -1.90904    
 REACH      9   LAYER   1   ROW     6   COL     4   RATE   -1.48738    
 REACH     10   LAYER   1   ROW     7   COL     4   RATE   -1.16919    
 REACH     11   LAYER   1   ROW     8   COL     4   RATE   -1.01569    
 REACH     12   LAYER   1   ROW     9   COL     4   RATE   -1.00372    
 REACH     13   LAYER   1   ROW    10   COL     4   RATE   -1.07293    
 REACH     14   LAYER   1   ROW    10   COL     5   RATE    2.21056    
 REACH     15   LAYER   1   ROW    10   COL     6   RATE    5.87506    
 REACH     16   LAYER   1   ROW    10   COL     7   RATE    3.10445    
 REACH     17   LAYER   1   ROW     9   COL     7   RATE    5.05334    
 REACH     18   LAYER   1   ROW     8   COL     7   RATE    2.08601    
 REACH     19   LAYER   1   ROW     7   COL     7   RATE  -0.226937    
 REACH     20   LAYER   1   ROW     6   COL     7   RATE   -3.01130    
 REACH     21   LAYER   1   ROW     6   COL     8   RATE   8.593396E-02
 REACH     22   LAYER   1   ROW     6   COL     9   RATE    2.80935    
 REACH     23   LAYER   1   ROW     7   COL     9   RATE    3.37302    
 REACH     24   LAYER   1   ROW     7   COL    10   RATE    7.47286    
 REACH     25   LAYER   1   ROW     8   COL    10   RATE    2.31834    
 REACH     26   LAYER   1   ROW     8   COL    11   RATE    8.82974    
 REACH     27   LAYER   1   ROW     9   COL    11   RATE    11.5377    
 REACH     28   LAYER   1   ROW    10   COL    11   RATE    5.13719    
 REACH     29   LAYER   1   ROW    10   COL    10   RATE    6.71810    
 REACH     30   LAYER   1   ROW    11   COL    10   RATE    3.66672    
 REACH     31   LAYER   1   ROW    11   COL     9   RATE    3.34331    
 REACH     32   LAYER   1   ROW    11   COL     8   RATE   -2.34461    
 REACH     33   LAYER   1   ROW    11   COL     7   RATE   -6.52127    
 REACH     34   LAYER   1   ROW    12   COL     7   RATE   -3.66604    
 REACH     35   LAYER   1   ROW    12   COL     6   RATE   -6.11930    
 REACH     36   LAYER   1   ROW    13   COL     6   RATE   -8.40102    
 REACH     37   LAYER   1   ROW    14   COL     6   RATE   -7.76169    
 REACH     38   LAYER   1   ROW    15   COL     6   RATE   -8.17739    
 REACH     39   LAYER   1   ROW    16   COL     6   RATE   -8.10167    
 REACH     40   LAYER   1   ROW    16   COL     7   RATE   -1.42572    
 REACH     41   LAYER   1   ROW    17   COL     7   RATE   -7.27585    
 REACH     42   LAYER   1   ROW    17   COL     8   RATE   -4.85713    
 REACH     43   LAYER   1   ROW    17   COL     9   RATE  -0.624290    
 REACH     44   LAYER   1   ROW    16   COL     9   RATE   -2.98592    
 REACH     45   LAYER   1   ROW    16   COL    10   RATE   1.165927E-02
 REACH     46   LAYER   1   ROW    15   COL    10   RATE   -1.37864    
 REACH     47   LAYER   1   ROW    14   COL    10   RATE   -2.88901    
 REACH     48   LAYER   1   ROW    14   COL    11   RATE   0.233373    
 REACH     49   LAYER   1   ROW    13   COL    11   RATE  -0.840325    
 REACH     50   LAYER   1   ROW    12   COL    11   RATE   -3.31477    
 REACH     51   LAYER   1   ROW    11   COL    11   RATE   -6.63551    
 REACH     52   LAYER   1   ROW    10   COL    11   RATE   -1.41627    
 REACH     53   LAYER   1   ROW    10   COL    12   RATE   -2.09086    
 REACH     54   LAYER   1   ROW     9   COL    12   RATE   -3.93816    
 REACH     55   LAYER   1   ROW     8   COL    12   RATE   -5.17778    
 REACH     56   LAYER   1   ROW     7   COL    12   RATE   -6.18894    
 REACH     57   LAYER   1   ROW     6   COL    12   RATE   -7.61831    
 REACH     58   LAYER   1   ROW     5   COL    12   RATE   -6.99566    
 REACH     59   LAYER   1   ROW     5   COL    13   RATE   -1.92974    
 REACH     60   LAYER   1   ROW     4   COL    13   RATE   -6.79893    
 REACH     61   LAYER   1   ROW     3   COL    13   RATE   -2.14399    
 REACH     62   LAYER   1   ROW     3   COL    14   RATE   -5.90892    
 REACH     63   LAYER   1   ROW     3   COL    15   RATE   -3.23920    
 REACH     64   LAYER   1   ROW     3   COL    16   RATE   1.591061E-02
 REACH     65   LAYER   1   ROW     4   COL    16   RATE   0.792759    
 REACH     66   LAYER   1   ROW     5   COL    16   RATE   0.541374    
 REACH     67   LAYER   1   ROW     6   COL    16   RATE   0.543076    
 REACH     68   LAYER   1   ROW     7   COL    16   RATE   0.636622    
 REACH     69   LAYER   1   ROW     8   COL    16   RATE   0.853883    
 REACH     70   LAYER   1   ROW     9   COL    16   RATE   0.938307    
 REACH     71   LAYER   1   ROW     9   COL    15   RATE   -2.27657    
 REACH     72   LAYER   1   ROW    10   COL    15   RATE   -3.40510    
 REACH     73   LAYER   1   ROW    11   COL    15   RATE   -3.40421    
 REACH     74   LAYER   1   ROW    12   COL    15   RATE   -3.64065    
 REACH     75   LAYER   1   ROW    13   COL    15   RATE   -4.05720    
 REACH     76   LAYER   1   ROW    14   COL    15   RATE   -5.00456    
 REACH     77   LAYER   1   ROW    15   COL    15   RATE   -6.98267    
 REACH     78   LAYER   1   ROW    15   COL    16   RATE  -0.280332    
 REACH     79   LAYER   1   ROW    16   COL    16   RATE   -5.20234    
 REACH     80   LAYER   1   ROW    16   COL    17   RATE   -3.31365    
 REACH     81   LAYER   1   ROW    16   COL    18   RATE  -0.738579    
 REACH     82   LAYER   1   ROW    15   COL    18   RATE   -1.31200    
 REACH     83   LAYER   1   ROW    14   COL    18   RATE   -1.80797    
 REACH     84   LAYER   1   ROW    13   COL    18   RATE   -1.65108    
 REACH     85   LAYER   1   ROW    13   COL    19   RATE  -5.292197E-02
 REACH     86   LAYER   1   ROW    12   COL    19   RATE  -9.684066E-02
 REACH     87   LAYER   1   ROW    12   COL    18   RATE   -3.22419    
 REACH     88   LAYER   1   ROW    11   COL    18   RATE   -4.44494    
 REACH     89   LAYER   1   ROW    10   COL    18   RATE   -6.49747    
 REACH     90   LAYER   1   ROW     9   COL    18   RATE   -2.21548    
 REACH     91   LAYER   1   ROW     9   COL    19   RATE   -6.50154    
 REACH     92   LAYER   1   ROW     9   COL    20   RATE   -5.02287    
 REACH     93   LAYER   1   ROW     9   COL    21   RATE   -4.21406    
1
              HEAD IN LAYER   1 AT END OF TIME STEP   1 IN STRESS PERIOD    1
  ---------------------------------------------------------------------------

           1       2       3       4       5       6       7       8       9      10      11      12      13      14      15
          16      17      18      19      20      21      22
 ...........................................................................................................................
   1  49.4974 49.4172 49.3370 49.2569 49.1801 49.1034 49.0266 48.7885 48.5503 48.3121 48.1006 47.8890 47.6774 47.5259 47.3744
      47.2229 47.0941 46.9653 46.8364 46.7224 46.6084 46.4944
   2  49.4766 49.3884 49.3003 49.2124 49.1278 49.0597 49.0339 48.7321 48.5041 48.2808 48.0578 47.8331 47.6110 47.4513 47.3145
      47.1829 47.0550 46.9277 46.8022 46.6889 46.5774 46.4662
   3  49.4558 49.3596 49.2633 49.1676 49.0818 49.0532 48.8854 48.6708 48.4607 48.2474 48.0146 47.7723 47.5038 47.3152 47.2208
      47.1408 47.0156 46.8895 46.7658 46.6547 46.5459 46.4379
   4  49.4350 49.3304 49.2252 49.1185 49.0410 49.0090 48.8067 48.6160 48.4223 48.2183 47.9746 47.7033 47.3890 47.3339 47.2197
      47.1140 46.9771 46.8504 46.7274 46.6188 46.5132 46.4096
   5  49.4143 49.3005 49.1844 49.0446 48.9821 48.8710 48.7294 48.5672 48.3988 48.2049 47.9467 47.5754 47.4117 47.3148 47.1919
      47.0759 46.9373 46.8081 46.6836 46.5781 46.4763 46.3757
   6  49.3935 49.2708 49.1453 48.9976 48.9109 48.7942 48.6301 48.5225 48.4128 48.2113 47.9351 47.5356 47.4206 47.2903 47.1599
      47.0392 46.8968 46.7641 46.6372 46.5350 46.4377 46.3418
   7  49.3727 49.2420 49.1083 48.9565 48.8562 48.7366 48.6080 48.4776 48.3945 48.2917 47.9487 47.5406 47.4058 47.2636 47.1259
      47.0024 46.8546 46.7169 46.5865 46.4884 46.3966 46.3078
   8  49.3543 49.2159 49.0754 48.9194 48.8097 48.6876 48.5927 48.4242 48.3014 48.2046 48.0500 47.5522 47.3934 47.2386 47.0858
      46.9617 46.8069 46.6584 46.5200 46.4290 46.3459 46.2695
   9  49.3358 49.1909 49.0439 48.8826 48.7692 48.6472 48.5730 48.3674 48.2415 48.1344 48.0550 47.5589 47.3811 47.2123 47.0149
      46.9144 46.7558 46.5622 46.3820 46.3141 46.2509 46.2311
  10  49.3173 49.1664 49.0131 48.8475 48.7503 48.6519 48.4665 48.2945 48.1905 48.1522 47.8970 47.5576 47.3676 47.1878 46.9594
      46.8586 46.7099 46.4639 46.4247 46.3516 46.2779 46.1927
  11  49.3025 49.1433 48.9831 48.8202 48.6613 48.4813 48.2375 48.1750 48.1467 48.0325 47.6831 47.5453 47.3513 47.1674 46.9303
      46.8287 46.6903 46.4764 46.4358 46.3634 46.2893 46.2089
  12  49.2876 49.1209 48.9530 48.7815 48.5909 48.3003 48.1675 48.1150 48.0216 47.8957 47.6480 47.5153 47.3338 47.1489 46.9040
      46.8065 46.6799 46.4995 46.4463 46.3749 46.3015 46.2252
  13  49.2728 49.1005 48.9256 48.7456 48.5349 48.1889 48.1418 48.0464 47.9404 47.8144 47.6371 47.4880 47.3184 47.1333 46.8785
      46.7896 46.6749 46.5294 46.4607 46.3878 46.3146 46.2414
  14  49.2639 49.0863 48.9071 48.7222 48.5032 48.1517 48.1051 48.0029 47.8918 47.7355 47.6263 47.4720 47.3103 47.1269 46.8579
      46.7850 46.6792 46.5449 46.4795 46.4043 46.3291 46.2539
  15  49.2551 49.0745 48.8924 48.7043 48.4812 48.1219 48.0702 47.9680 47.8546 47.7236 47.6063 47.4597 47.3057 47.1262 46.8439
      46.7758 46.6822 46.5688 46.4998 46.4220 46.3442 46.2664
  16  49.2462 49.0651 48.8814 48.6922 48.4707 48.1244 48.0229 47.9341 47.7963 47.7235 47.5936 47.4521 47.3052 47.1373 46.9482
      46.7318 46.6544 46.5963 46.5213 46.4404 46.3595 46.2789
  17  49.2434 49.0618 48.8790 48.6926 48.4864 48.2539 47.9753 47.8851 47.8278 47.7288 47.5955 47.4558 47.3126 47.1550 46.9920
      46.8322 46.7295 46.6375 46.5451 46.4595 46.3750 46.2907
  18  49.2407 49.0604 48.8796 48.6968 48.5034 48.3039 48.1053 47.9770 47.8609 47.7381 47.6021 47.4633 47.3226 47.1741 47.0240
      46.8786 46.7705 46.6686 46.5684 46.4788 46.3906 46.3026
  19  49.2379 49.0593 48.8807 48.7022 48.5193 48.3363 48.1534 48.0182 47.8830 47.7478 47.6097 47.4715 47.3334 47.1932 47.0529
      46.9127 46.8050 46.6973 46.5896 46.4979 46.4062 46.3145
1
              HEAD IN LAYER   2 AT END OF TIME STEP   1 IN STRESS PERIOD    1
  ---------------------------------------------------------------------------

           1       2       3       4       5       6       7       8       9      10      11      12      13      14      15
          16      17      18      19      20      21      22
 ...........................................................................................................................
   1  49.4974 49.4172 49.3370 49.2569 49.1801 49.1034 49.0266 48.7885 48.5503 48.3121 48.1006 47.8890 47.6774 47.5259 47.3744
      47.2229 47.0941 46.9653 46.8364 46.7224 46.6084 46.4944
   2  49.4766 49.3885 49.3003 49.2124 49.1270 49.0543 48.9977 48.7302 48.5037 48.2808 48.0577 47.8332 47.6115 47.4538 47.3161
      47.1829 47.0550 46.9277 46.8020 46.6889 46.5774 46.4662
   3  49.4558 49.3596 49.2633 49.1675 49.0800 49.0285 48.8824 48.6702 48.4603 48.2476 48.0145 47.7731 47.5173 47.3469 47.2387
      47.1409 47.0156 46.8895 46.7656 46.6547 46.5460 46.4379
   4  49.4350 49.3305 49.2254 49.1192 49.0352 48.9780 48.8062 48.6156 48.4216 48.2183 47.9744 47.7070 47.4243 47.3371 47.2209
      47.1096 46.9769 46.8504 46.7273 46.6190 46.5133 46.4096
   5  49.4143 49.3006 49.1848 49.0546 48.9763 48.8681 48.7311 48.5671 48.3973 48.2052 47.9482 47.6154 47.4246 47.3156 47.1919
      47.0724 46.9371 46.8081 46.6833 46.5781 46.4764 46.3757
   6  49.3935 49.2708 49.1457 49.0063 48.9107 48.7942 48.6457 48.5219 48.3969 48.2089 47.9364 47.5806 47.4221 47.2903 47.1598
      47.0358 46.8967 46.7641 46.6369 46.5351 46.4378 46.3418
   7  49.3727 49.2419 49.1084 48.9633 48.8562 48.7363 48.6093 48.4769 48.3752 48.2539 47.9450 47.5776 47.4058 47.2634 47.1259
      46.9986 46.8546 46.7172 46.5866 46.4889 46.3970 46.3078
   8  49.3543 49.2159 49.0757 48.9254 48.8097 48.6865 48.5799 48.4232 48.2989 48.1886 48.0006 47.5810 47.3932 47.2385 47.0867
      46.9566 46.8069 46.6599 46.5224 46.4315 46.3479 46.2695
   9  49.3358 49.1909 49.0442 48.8884 48.7682 48.6436 48.5452 48.3663 48.2405 48.1290 47.9918 47.5796 47.3809 47.2128 47.0281
      46.9094 46.7562 46.5776 46.4170 46.3422 46.2738 46.2311
  10  49.3173 49.1664 49.0133 48.8530 48.7385 48.6218 48.4505 48.2953 48.1885 48.1172 47.8750 47.5694 47.3674 47.1886 46.9795
      46.8583 46.7106 46.5002 46.4270 46.3529 46.2789 46.1927
  11  49.3025 49.1432 48.9831 48.8207 48.6607 48.4829 48.2709 48.1876 48.1293 48.0127 47.7158 47.5474 47.3511 47.1684 46.9513
      46.8291 46.6914 46.5037 46.4366 46.3635 46.2894 46.2089
  12  49.2876 49.1208 48.9529 48.7818 48.5923 48.3361 48.1894 48.1163 48.0199 47.8954 47.6676 47.5162 47.3337 47.1499 46.9265
      46.8068 46.6807 46.5193 46.4471 46.3749 46.3015 46.2252
  13  49.2728 49.1002 48.9252 48.7456 48.5365 48.2378 48.1434 48.0454 47.9391 47.8153 47.6424 47.4878 47.3184 47.1343 46.9035
      46.7896 46.6751 46.5401 46.4609 46.3877 46.3145 46.2414
  14  49.2639 49.0861 48.9070 48.7226 48.5055 48.1993 48.1063 48.0027 47.8922 47.7515 47.6262 47.4719 47.3106 47.1284 46.8888
      46.7859 46.6799 46.5558 46.4797 46.4043 46.3291 46.2539
  15  49.2551 49.0744 48.8922 48.7048 48.4835 48.1713 48.0719 47.9682 47.8560 47.7324 47.6066 47.4596 47.3060 47.1277 46.8832
      46.7799 46.6840 46.5770 46.5000 46.4220 46.3442 46.2664
  16  49.2462 49.0648 48.8810 48.6922 48.4719 48.1698 48.0327 47.9359 47.8116 47.7244 47.5932 47.4517 47.3052 47.1373 46.9515
      46.7588 46.6725 46.6013 46.5213 46.4403 46.3595 46.2789
  17  49.2434 49.0617 48.8789 48.6928 48.4868 48.2586 48.0138 47.9118 47.8331 47.7294 47.5954 47.4557 47.3128 47.1550 46.9924
      46.8335 46.7309 46.6380 46.5450 46.4595 46.3750 46.2907
  18  49.2407 49.0603 48.8795 48.6970 48.5035 48.3047 48.1077 47.9792 47.8616 47.7384 47.6021 47.4632 47.3227 47.1741 47.0241
      46.8783 46.7706 46.6687 46.5683 46.4788 46.3906 46.3026
  19  49.2379 49.0593 48.8807 48.7022 48.5193 48.3363 48.1534 48.0182 47.8830 47.7478 47.6097 47.4715 47.3334 47.1932 47.0529
      46.9127 46.8050 46.6973 46.5896 46.4979 46.4062 46.3145
1
              HEAD IN LAYER   3 AT END OF TIME STEP   1 IN STRESS PERIOD    1
  ---------------------------------------------------------------------------

           1       2       3       4       5       6       7       8       9      10      11      12      13      14      15
          16      17      18      19      20      21      22
 ...........................................................................................................................
   1  49.4975 49.4172 49.3370 49.2568 49.1777 49.0987 49.0196 48.7839 48.5481 48.3124 48.1008 47.8891 47.6775 47.5260 47.3745
      47.2230 47.0942 46.9653 46.8365 46.7225 46.6085 46.4945
   2  49.4767 49.3885 49.3003 49.2123 49.1255 49.0472 48.9722 48.7274 48.5030 48.2809 48.0577 47.8334 47.6120 47.4579 47.3186
      47.1828 47.0549 46.9276 46.8017 46.6888 46.5774 46.4662
   3  49.4558 49.3596 49.2634 49.1675 49.0772 49.0078 48.8787 48.6693 48.4598 48.2480 48.0145 47.7747 47.5284 47.3712 47.2527
      47.1411 47.0155 46.8895 46.7652 46.6547 46.5461 46.4378
   4  49.4350 49.3306 49.2258 49.1202 49.0294 48.9534 48.8061 48.6150 48.4203 48.2183 47.9740 47.7127 47.4489 47.3419 47.2226
      47.1062 46.9766 46.8506 46.7272 46.6194 46.5137 46.4095
   5  49.4143 49.3006 49.1856 49.0623 48.9717 48.8639 48.7341 48.5670 48.3950 48.2063 47.9509 47.6484 47.4354 47.3171 47.1920
      47.0694 46.9368 46.8080 46.6826 46.5782 46.4765 46.3756
   6  49.3935 49.2708 49.1464 49.0135 48.9104 48.7942 48.6577 48.5214 48.3840 48.2063 47.9385 47.6186 47.4238 47.2905 47.1596
      47.0328 46.8965 46.7642 46.6361 46.5352 46.4380 46.3417
   7  49.3728 49.2416 49.1087 48.9687 48.8561 48.7357 48.6103 48.4759 48.3597 48.2276 47.9401 47.6091 47.4048 47.2629 47.1259
      46.9956 46.8548 46.7180 46.5865 46.4898 46.3978 46.3078
   8  49.3543 49.2159 49.0761 48.9305 48.8095 48.6845 48.5689 48.4216 48.2949 48.1743 47.9611 47.6040 47.3922 47.2385 47.0881
      46.9524 46.8070 46.6627 46.5259 46.4356 46.3512 46.2706
   9  49.3358 49.1909 49.0447 48.8932 48.7667 48.6380 48.5230 48.3646 48.2388 48.1213 47.9422 47.5951 47.3800 47.2136 47.0390
      46.9055 46.7570 46.5921 46.4429 46.3643 46.2915 46.2335
  10  49.3173 49.1663 49.0137 48.8570 48.7296 48.6001 48.4390 48.2970 48.1860 48.0922 47.8571 47.5791 47.3669 47.1899 46.9960
      46.8575 46.7114 46.5283 46.4292 46.3542 46.2799 46.1964
  11  49.3025 49.1432 48.9832 48.8215 48.6600 48.4859 48.2951 48.1974 48.1163 47.9983 47.7386 47.5508 47.3506 47.1702 46.9696
      46.8296 46.6934 46.5272 46.4374 46.3635 46.2896 46.2114
  12  49.2877 49.1206 48.9527 48.7823 48.5947 48.3662 48.2072 48.1182 48.0173 47.8957 47.6838 47.5178 47.3336 47.1518 46.9462
      46.8070 46.6822 46.5365 46.4478 46.3748 46.3016 46.2264
  13  49.2728 49.0995 48.9244 48.7456 48.5390 48.2777 48.1446 48.0429 47.9363 47.8165 47.6467 47.4874 47.3182 47.1358 46.9248
      46.7888 46.6752 46.5497 46.4608 46.3873 46.3143 46.2415
  14  49.2640 49.0859 48.9068 48.7236 48.5096 48.2408 48.1076 48.0021 47.8928 47.7645 47.6269 47.4718 47.3112 47.1310 46.9156
      46.7870 46.6811 46.5652 46.4797 46.4042 46.3290 46.2539
  15  49.2551 49.0741 48.8921 48.7058 48.4875 48.2135 48.0740 47.9685 47.8582 47.7407 47.6071 47.4594 47.3067 47.1304 46.9143
      46.7848 46.6871 46.5842 46.5001 46.4220 46.3442 46.2664
  16  49.2463 49.0642 48.8802 48.6922 48.4738 48.2057 48.0403 47.9380 47.8220 47.7257 47.5920 47.4506 47.3053 47.1374 46.9567
      46.7774 46.6862 46.6057 46.5213 46.4402 46.3595 46.2789
  17  49.2435 49.0615 48.8787 48.6933 48.4877 48.2664 48.0419 47.9324 47.8386 47.7305 47.5952 47.4555 47.3132 47.1551 46.9933
      46.8351 46.7332 46.6388 46.5447 46.4594 46.3750 46.2908
  18  49.2407 49.0603 48.8795 48.6973 48.5038 48.3063 48.1111 47.9827 47.8629 47.7390 47.6021 47.4632 47.3230 47.1741 47.0242
      46.8777 46.7710 46.6688 46.5680 46.4788 46.3907 46.3026
  19  49.2379 49.0593 48.8808 48.7022 48.5193 48.3364 48.1535 48.0183 47.8831 47.7479 47.6097 47.4716 47.3334 47.1932 47.0530
      46.9128 46.8051 46.6974 46.5896 46.4979 46.4062 46.3145
1
              HEAD IN LAYER   4 AT END OF TIME STEP   1 IN STRESS PERIOD    1
  ---------------------------------------------------------------------------

           1       2       3       4       5       6       7       8       9      10      11      12      13      14      15
          16      17      18      19      20      21      22
 ...........................................................................................................................
   1  49.4976 49.4173 49.3370 49.2566 49.1753 49.0939 49.0126 48.7793 48.5460 48.3126 48.1010 47.8893 47.6776 47.5261 47.3746
      47.2231 47.0943 46.9654 46.8365 46.7225 46.6085 46.4945
   2  49.4767 49.3885 49.3003 49.2121 49.1236 49.0392 48.9538 48.7241 48.5021 48.2811 48.0577 47.8337 47.6119 47.4626 47.3217
      47.1827 47.0549 46.9275 46.8010 46.6888 46.5774 46.4662
   3  49.4559 49.3597 49.2635 49.1675 49.0737 48.9896 48.8759 48.6681 48.4592 48.2488 48.0144 47.7766 47.5370 47.3912 47.2645
      47.1413 47.0155 46.8895 46.7645 46.6548 46.5462 46.4378
   4  49.4350 49.3308 49.2263 49.1215 49.0239 48.9329 48.8071 48.6140 48.4184 48.2185 47.9730 47.7185 47.4655 47.3466 47.2243
      47.1032 46.9762 46.8509 46.7271 46.6201 46.5143 46.4095
   5  49.4143 49.3008 49.1865 49.0685 48.9677 48.8590 48.7383 48.5668 48.3922 48.2084 47.9541 47.6769 47.4437 47.3188 47.1922
      47.0666 46.9364 46.8080 46.6815 46.5783 46.4767 46.3755
   6  49.3936 49.2708 49.1472 49.0197 48.9100 48.7940 48.6680 48.5209 48.3730 48.2048 47.9413 47.6521 47.4242 47.2907 47.1594
      47.0301 46.8962 46.7642 46.6347 46.5354 46.4383 46.3416
   7  49.3728 49.2413 49.1088 48.9731 48.8557 48.7347 48.6111 48.4749 48.3470 48.2097 47.9352 47.6371 47.4019 47.2621 47.1259
      46.9931 46.8552 46.7192 46.5863 46.4912 46.3989 46.3077
   8  49.3543 49.2159 49.0767 48.9348 48.8093 48.6820 48.5589 48.4196 48.2903 48.1624 47.9277 47.6234 47.3897 47.2384 47.0898
      46.9486 46.8072 46.6662 46.5295 46.4406 46.3552 46.2718
   9  49.3358 49.1909 49.0453 48.8973 48.7649 48.6316 48.5041 48.3626 48.2367 48.1139 47.9009 47.6077 47.3779 47.2146 47.0484
      46.9021 46.7579 46.6059 46.4630 46.3826 46.3058 46.2359
  10  49.3174 49.1662 49.0142 48.8603 48.7226 48.5838 48.4306 48.2997 48.1841 48.0747 47.8424 47.5878 47.3655 47.1914 47.0101
      46.8557 46.7116 46.5504 46.4296 46.3543 46.2799 46.2000
  11  49.3026 49.1431 48.9833 48.8226 48.6594 48.4897 48.3136 48.2056 48.1061 47.9882 47.7557 47.5548 47.3496 47.1724 46.9861
      46.8296 46.6957 46.5480 46.4376 46.3635 46.2897 46.2139
  12  49.2877 49.1203 48.9525 48.7832 48.5976 48.3926 48.2217 48.1203 48.0142 47.8969 47.6977 47.5196 47.3333 47.1542 46.9641
      46.8066 46.6840 46.5520 46.4480 46.3747 46.3017 46.2277
  13  49.2729 49.0985 48.9230 48.7454 48.5414 48.3114 48.1435 48.0384 47.9316 47.8175 47.6496 47.4863 47.3179 47.1375 46.9435
      46.7864 46.6748 46.5582 46.4598 46.3867 46.3141 46.2415
  14  49.2641 49.0856 48.9065 48.7251 48.5148 48.2781 48.1079 48.0013 47.8934 47.7760 47.6281 47.4717 47.3122 47.1343 46.9397
      46.7876 46.6826 46.5735 46.4794 46.4040 46.3290 46.2540
  15  49.2552 49.0738 48.8918 48.7074 48.4925 48.2511 48.0753 47.9688 47.8606 47.7488 47.6076 47.4592 47.3079 47.1336 46.9406
      46.7892 46.6908 46.5908 46.4999 46.4219 46.3442 46.2664
  16  49.2464 49.0631 48.8788 48.6922 48.4753 48.2347 48.0441 47.9389 47.8287 47.7269 47.5900 47.4489 47.3055 47.1372 46.9621
      46.7898 46.6967 46.6095 46.5210 46.4401 46.3594 46.2789
  17  49.2435 49.0612 48.8785 48.6941 48.4889 48.2754 48.0631 47.9494 47.8441 47.7321 47.5949 47.4551 47.3139 47.1552 46.9944
      46.8361 46.7358 46.6399 46.5443 46.4594 46.3750 46.2908
  18  49.2407 49.0602 48.8795 48.6979 48.5042 48.3084 48.1144 47.9870 47.8645 47.7399 47.6021 47.4632 47.3235 47.1742 47.0243
      46.8765 46.7714 46.6690 46.5674 46.4787 46.3907 46.3027
  19  49.2379 49.0593 48.8808 48.7022 48.5193 48.3364 48.1535 48.0183 47.8831 47.7479 47.6098 47.4716 47.3335 47.1933 47.0531
      46.9128 46.8051 46.6974 46.5897 46.4980 46.4063 46.3146
1
              HEAD IN LAYER   5 AT END OF TIME STEP   1 IN STRESS PERIOD    1
  ---------------------------------------------------------------------------

           1       2       3       4       5       6       7       8       9      10      11      12      13      14      15
          16      17      18      19      20      21      22
 ...........................................................................................................................
   1  49.4976 49.4173 49.3369 49.2565 49.1729 49.0892 49.0056 48.7747 48.5438 48.3129 48.1012 47.8895 47.6777 47.5262 47.3747
      47.2233 47.0944 46.9655 46.8366 46.7226 46.6086 46.4945
   2  49.4768 49.3885 49.3003 49.2120 49.1215 49.0309 48.9403 48.7207 48.5011 48.2815 48.0578 47.8341 47.6104 47.4677 47.3250
      47.1823 47.0549 46.9275 46.8001 46.6888 46.5775 46.4662
   3  49.4559 49.3598 49.2636 49.1675 49.0700 48.9726 48.8751 48.6668 48.4584 48.2501 48.0144 47.7787 47.5430 47.4091 47.2752
      47.1413 47.0154 46.8895 46.7635 46.6549 46.5464 46.4378
   4  49.4350 49.3310 49.2270 49.1230 49.0186 48.9142 48.8098 48.6128 48.4157 48.2187 47.9710 47.7233 47.4756 47.3505 47.2254
      47.1004 46.9759 46.8514 46.7270 46.6211 46.5153 46.4094
   5  49.4143 49.3009 49.1875 49.0741 48.9641 48.8540 48.7439 48.5666 48.3893 48.2119 47.9576 47.7033 47.4490 47.3207 47.1923
      47.0640 46.9359 46.8079 46.6798 46.5784 46.4769 46.3755
   6  49.3936 49.2708 49.1481 49.0253 48.9095 48.7938 48.6780 48.5204 48.3628 48.2052 47.9443 47.6833 47.4224 47.2908 47.1592
      47.0276 46.8960 46.7643 46.6327 46.5356 46.4386 46.3415
   7  49.3728 49.2407 49.1086 48.9764 48.8550 48.7335 48.6121 48.4742 48.3364 48.1985 47.9309 47.6634 47.3958 47.2609 47.1261
      46.9912 46.8560 46.7208 46.5855 46.4929 46.4003 46.3076
   8  49.3544 49.2158 49.0773 48.9387 48.8090 48.6792 48.5494 48.4174 48.2854 48.1534 47.8973 47.6411 47.3849 47.2383 47.0916
      46.9449 46.8074 46.6700 46.5325 46.4460 46.3595 46.2730
   9  49.3359 49.1909 49.0460 48.9010 48.7629 48.6248 48.4868 48.3606 48.2345 48.1083 47.8636 47.6188 47.3740 47.2156 47.0571
      46.8987 46.7589 46.6191 46.4794 46.3990 46.3187 46.2383
  10  49.3174 49.1660 49.0146 48.8632 48.7169 48.5705 48.4241 48.3038 48.1835 48.0632 47.8299 47.5965 47.3632 47.1929 47.0226
      46.8524 46.7104 46.5683 46.4263 46.3521 46.2779 46.2037
  11  49.3026 49.1430 48.9834 48.8238 48.6588 48.4938 48.3289 48.2130 48.0972 47.9814 47.7702 47.5591 47.3479 47.1749 47.0018
      46.8288 46.6981 46.5675 46.4368 46.3633 46.2898 46.2163
  12  49.2878 49.1200 48.9522 48.7844 48.6008 48.4172 48.2336 48.1222 48.0109 47.8995 47.7106 47.5216 47.3327 47.1568 46.9810
      46.8052 46.6859 46.5666 46.4473 46.3745 46.3017 46.2290
  13  49.2730 49.0970 48.9209 48.7449 48.5427 48.3405 48.1383 48.0314 47.9245 47.8177 47.6509 47.4842 47.3174 47.1388 46.9602
      46.7816 46.6736 46.5657 46.4577 46.3857 46.3136 46.2416
  14  49.2642 49.0852 48.9062 48.7273 48.5203 48.3134 48.1064 48.0001 47.8938 47.7876 47.6295 47.4715 47.3135 47.1380 46.9624
      46.7869 46.6841 46.5814 46.4786 46.4037 46.3289 46.2540
  15  49.2553 49.0734 48.8915 48.7096 48.4980 48.2863 48.0746 47.9689 47.8632 47.7574 47.6082 47.4589 47.3096 47.1371 46.9646
      46.7922 46.6946 46.5970 46.4995 46.4218 46.3441 46.2665
  16  49.2465 49.0616 48.8768 48.6920 48.4756 48.2592 48.0427 47.9376 47.8325 47.7273 47.5868 47.4462 47.3057 47.1363 46.9669
      46.7975 46.7051 46.6127 46.5203 46.4398 46.3594 46.2789
  17  49.2436 49.0609 48.8782 48.6954 48.4902 48.2849 48.0797 47.9645 47.8494 47.7342 47.5945 47.4547 47.3150 47.1553 46.9956
      46.8360 46.7385 46.6410 46.5435 46.4593 46.3750 46.2908
  18  49.2407 49.0601 48.8795 48.6988 48.5048 48.3107 48.1166 47.9915 47.8663 47.7411 47.6021 47.4632 47.3242 47.1743 47.0244
      46.8744 46.7718 46.6692 46.5667 46.4787 46.3907 46.3027
  19  49.2379 49.0593 48.8808 48.7022 48.5194 48.3365 48.1536 48.0184 47.8832 47.7480 47.6098 47.4717 47.3335 47.1933 47.0531
      46.9129 46.8052 46.6975 46.5898 46.4981 46.4063 46.3146

 HEAD WILL BE SAVED ON UNIT   31 AT END OF TIME STEP   1, STRESS PERIOD    1
1
  VOLUMETRIC BUDGET FOR ENTIRE MODEL AT END OF TIME STEP  1 IN STRESS PERIOD   1
  ------------------------------------------------------------------------------

     CUMULATIVE VOLUMES      L**3       RATES FOR THIS TIME STEP      L**3/T
     ------------------                 ------------------------

           IN:                                      IN:
           ---                                      ---
             STORAGE =           0.0000               STORAGE =           0.0000
       CONSTANT HEAD =         211.7699         CONSTANT HEAD =         211.7699
       RIVER LEAKAGE =          97.8932         RIVER LEAKAGE =          97.8932

            TOTAL IN =         309.6631              TOTAL IN =         309.6631

          OUT:                                     OUT:
          ----                                     ----
             STORAGE =           0.0000               STORAGE =           0.0000
       CONSTANT HEAD =          86.6528         CONSTANT HEAD =          86.6528
       RIVER LEAKAGE =         223.0103         RIVER LEAKAGE =         223.0103

           TOTAL OUT =         309.6631             TOTAL OUT =         309.6631

            IN - OUT =           0.0000              IN - OUT =           0.0000

 PERCENT DISCREPANCY =           0.00     PERCENT DISCREPANCY =           0.00






          TIME SUMMARY AT END OF TIME STEP   1 IN STRESS PERIOD    1
                    SECONDS     MINUTES      HOURS       DAYS        YEARS
                    -----------------------------------------------------------
   TIME STEP LENGTH  1.0000     1.66667E-02 2.77778E-04 1.15741E-05 3.16881E-08
 STRESS PERIOD TIME  1.0000     1.66667E-02 2.77778E-04 1.15741E-05 3.16881E-08
         TOTAL TIME  1.0000     1.66667E-02 2.77778E-04 1.15741E-05 3.16881E-08
1
1
  FLUX ACROSS PARENT-CHILD INTERFACE AT TIME STEP  1 IN STRESS PERIOD    1
  ------------------------------------------------------------------------

     CUMULATIVE VOLUMES      L**3       RATES FOR THIS TIME STEP      L**3/T
     ------------------                 ------------------------

   TOTAL IN TO CHILD =         175.5628     TOTAL IN TO CHILD =         175.5628

 TOTAL OUT TO PARENT =          51.1392   TOTAL OUT TO PARENT =          51.1392


 Run end date and time (yyyy/mm/dd hh:mm:ss): 2010/05/24 13:38:22
 Elapsed run time:  0.297 Seconds

