                                  MODFLOW-LGR      
      U.S. GEOLOGICAL SURVEY MODULAR FINITE-DIFFERENCE GROUND-WATER FLOW MODEL
                            VERSION 1.2.0  05/18/2010

 LIST FILE: sfrex2_child.out
                         UNIT   26

 OPENING sfrex2_child.ba6
 FILE TYPE:BAS6   UNIT    2   STATUS:OLD    
 FORMAT:FORMATTED              ACCESS:SEQUENTIAL          

 OPENING sfrex2_child.bc6
 FILE TYPE:BCF6   UNIT   21   STATUS:OLD    
 FORMAT:FORMATTED              ACCESS:SEQUENTIAL          

 OPENING sfrex2_child.dis
 FILE TYPE:DIS   UNIT   29   STATUS:OLD    
 FORMAT:FORMATTED              ACCESS:SEQUENTIAL          

 OPENING sfrex2_child.oc
 FILE TYPE:OC   UNIT   20   STATUS:OLD    
 FORMAT:FORMATTED              ACCESS:SEQUENTIAL          

 OPENING sfrex2_child.de4
 FILE TYPE:DE4   UNIT   22   STATUS:OLD    
 FORMAT:FORMATTED              ACCESS:SEQUENTIAL          

 OPENING sfrex2_child.sfr
 FILE TYPE:SFR   UNIT   25   STATUS:OLD    
 FORMAT:FORMATTED              ACCESS:SEQUENTIAL          

 OPENING sfrex2_child.bot
 FILE TYPE:DATA   UNIT   51   STATUS:UNKNOWN
 FORMAT:FORMATTED              ACCESS:SEQUENTIAL          
#                                                                                                                                                                                                                                                                                                           

 OPENING sfrex2_child.hed
 FILE TYPE:DATA(BINARY)   UNIT   31   STATUS:UNKNOWN
 FORMAT:BINARY                 ACCESS:SEQUENTIAL          

 OPENING sfrex2_child.flw
 FILE TYPE:DATA(BINARY)   UNIT   41   STATUS:UNKNOWN
 FORMAT:BINARY                 ACCESS:SEQUENTIAL          

 OPENING sfrex2_child_bfh.hed
 FILE TYPE:DATA   UNIT   80   STATUS:UNKNOWN
 FORMAT:FORMATTED              ACCESS:SEQUENTIAL          

 OPENING sfrex2_child_bfh.flw
 FILE TYPE:DATA   UNIT   81   STATUS:UNKNOWN
 FORMAT:FORMATTED              ACCESS:SEQUENTIAL          

 OPENING sfrex2_child_sfr.out
 FILE TYPE:DATA   UNIT   39   STATUS:UNKNOWN
 FORMAT:FORMATTED              ACCESS:SEQUENTIAL          

 BAS -- BASIC PACKAGE, VERSION 7, 5/2/2005 INPUT READ FROM UNIT    2

 DISCRETIZATION INPUT DATA READ FROM UNIT   29
    5 LAYERS        19 ROWS        22 COLUMNS
    1 STRESS PERIOD(S) IN SIMULATION
 MODEL TIME UNIT IS SECONDS
 MODEL LENGTH UNIT IS METERS
  Confining bed flag for each layer:
   0   0   0   0   0

                     DELR =   34.3133    

                     DELC =   22.8756    



           TOP ELEVATION OF LAYER 1
 READING ON UNIT   51 WITH FORMAT: (FREE)              

           1       2       3       4       5       6       7       8       9      10      11      12      13      14      15
          16      17      18      19      20      21      22
 ...........................................................................................................................
   1   49.643  49.524  49.405  49.286  49.167  49.048  48.929  48.810  48.690  48.571  48.452  48.333  48.214  48.095  47.976
       47.857  47.738  47.619  47.500  47.381  47.262  47.143
   2   49.643  49.524  49.405  49.286  49.167  49.048  48.929  48.810  48.690  48.571  48.452  48.333  48.214  48.095  47.976
       47.857  47.738  47.619  47.500  47.381  47.262  47.143
   3   49.643  49.524  49.405  49.286  49.167  49.048  48.929  48.810  48.690  48.571  48.452  48.333  48.214  48.095  47.976
       47.857  47.738  47.619  47.500  47.381  47.262  47.143
   4   49.643  49.524  49.405  49.286  49.167  49.048  48.929  48.810  48.690  48.571  48.452  48.333  48.214  48.095  47.976
       47.857  47.738  47.619  47.500  47.381  47.262  47.143
   5   49.643  49.524  49.405  49.286  49.167  49.048  48.929  48.810  48.690  48.571  48.452  48.333  48.214  48.095  47.976
       47.857  47.738  47.619  47.500  47.381  47.262  47.143
   6   49.643  49.524  49.405  49.286  49.167  49.048  48.929  48.810  48.690  48.571  48.452  48.333  48.214  48.095  47.976
       47.857  47.738  47.619  47.500  47.381  47.262  47.143
   7   49.643  49.524  49.405  49.286  49.167  49.048  48.929  48.810  48.690  48.571  48.452  48.333  48.214  48.095  47.976
       47.857  47.738  47.619  47.500  47.381  47.262  47.143
   8   49.643  49.524  49.405  49.286  49.167  49.048  48.929  48.810  48.690  48.571  48.452  48.333  48.214  48.095  47.976
       47.857  47.738  47.619  47.500  47.381  47.262  47.143
   9   49.643  49.524  49.405  49.286  49.167  49.048  48.929  48.810  48.690  48.571  48.452  48.333  48.214  48.095  47.976
       47.857  47.738  47.619  47.500  47.381  47.262  47.143
  10   49.643  49.524  49.405  49.286  49.167  49.048  48.929  48.810  48.690  48.571  48.452  48.333  48.214  48.095  47.976
       47.857  47.738  47.619  47.500  47.381  47.262  47.143
  11   49.643  49.524  49.405  49.286  49.167  49.048  48.929  48.810  48.690  48.571  48.452  48.333  48.214  48.095  47.976
       47.857  47.738  47.619  47.500  47.381  47.262  47.143
  12   49.643  49.524  49.405  49.286  49.167  49.048  48.929  48.810  48.690  48.571  48.452  48.333  48.214  48.095  47.976
       47.857  47.738  47.619  47.500  47.381  47.262  47.143
  13   49.643  49.524  49.405  49.286  49.167  49.048  48.929  48.810  48.690  48.571  48.452  48.333  48.214  48.095  47.976
       47.857  47.738  47.619  47.500  47.381  47.262  47.143
  14   49.643  49.524  49.405  49.286  49.167  49.048  48.929  48.810  48.690  48.571  48.452  48.333  48.214  48.095  47.976
       47.857  47.738  47.619  47.500  47.381  47.262  47.143
  15   49.643  49.524  49.405  49.286  49.167  49.048  48.929  48.810  48.690  48.571  48.452  48.333  48.214  48.095  47.976
       47.857  47.738  47.619  47.500  47.381  47.262  47.143
  16   49.643  49.524  49.405  49.286  49.167  49.048  48.929  48.810  48.690  48.571  48.452  48.333  48.214  48.095  47.976
       47.857  47.738  47.619  47.500  47.381  47.262  47.143
  17   49.643  49.524  49.405  49.286  49.167  49.048  48.929  48.810  48.690  48.571  48.452  48.333  48.214  48.095  47.976
       47.857  47.738  47.619  47.500  47.381  47.262  47.143
  18   49.643  49.524  49.405  49.286  49.167  49.048  48.929  48.810  48.690  48.571  48.452  48.333  48.214  48.095  47.976
       47.857  47.738  47.619  47.500  47.381  47.262  47.143
  19   49.643  49.524  49.405  49.286  49.167  49.048  48.929  48.810  48.690  48.571  48.452  48.333  48.214  48.095  47.976
       47.857  47.738  47.619  47.500  47.381  47.262  47.143



             MODEL LAYER BOTTOM EL. FOR LAYER   1
 READING ON UNIT   51 WITH FORMAT: (FREE)              

           1       2       3       4       5       6       7       8       9      10      11      12      13      14      15
          16      17      18      19      20      21      22
 ...........................................................................................................................
   1   44.087  43.968  43.849  43.730  43.611  43.492  43.373  43.254  43.135  43.016  42.897  42.778  42.659  42.540  42.421
       42.302  42.183  42.063  41.944  41.825  41.706  41.587
   2   44.087  43.968  43.849  43.730  43.611  43.492  43.373  43.254  43.135  43.016  42.897  42.778  42.659  42.540  42.421
       42.302  42.183  42.063  41.944  41.825  41.706  41.587
   3   44.087  43.968  43.849  43.730  43.611  43.492  43.373  43.254  43.135  43.016  42.897  42.778  42.659  42.540  42.421
       42.302  42.183  42.063  41.944  41.825  41.706  41.587
   4   44.087  43.968  43.849  43.730  43.611  43.492  43.373  43.254  43.135  43.016  42.897  42.778  42.659  42.540  42.421
       42.302  42.183  42.063  41.944  41.825  41.706  41.587
   5   44.087  43.968  43.849  43.730  43.611  43.492  43.373  43.254  43.135  43.016  42.897  42.778  42.659  42.540  42.421
       42.302  42.183  42.063  41.944  41.825  41.706  41.587
   6   44.087  43.968  43.849  43.730  43.611  43.492  43.373  43.254  43.135  43.016  42.897  42.778  42.659  42.540  42.421
       42.302  42.183  42.063  41.944  41.825  41.706  41.587
   7   44.087  43.968  43.849  43.730  43.611  43.492  43.373  43.254  43.135  43.016  42.897  42.778  42.659  42.540  42.421
       42.302  42.183  42.063  41.944  41.825  41.706  41.587
   8   44.087  43.968  43.849  43.730  43.611  43.492  43.373  43.254  43.135  43.016  42.897  42.778  42.659  42.540  42.421
       42.302  42.183  42.063  41.944  41.825  41.706  41.587
   9   44.087  43.968  43.849  43.730  43.611  43.492  43.373  43.254  43.135  43.016  42.897  42.778  42.659  42.540  42.421
       42.302  42.183  42.063  41.944  41.825  41.706  41.587
  10   44.087  43.968  43.849  43.730  43.611  43.492  43.373  43.254  43.135  43.016  42.897  42.778  42.659  42.540  42.421
       42.302  42.183  42.063  41.944  41.825  41.706  41.587
  11   44.087  43.968  43.849  43.730  43.611  43.492  43.373  43.254  43.135  43.016  42.897  42.778  42.659  42.540  42.421
       42.302  42.183  42.063  41.944  41.825  41.706  41.587
  12   44.087  43.968  43.849  43.730  43.611  43.492  43.373  43.254  43.135  43.016  42.897  42.778  42.659  42.540  42.421
       42.302  42.183  42.063  41.944  41.825  41.706  41.587
  13   44.087  43.968  43.849  43.730  43.611  43.492  43.373  43.254  43.135  43.016  42.897  42.778  42.659  42.540  42.421
       42.302  42.183  42.063  41.944  41.825  41.706  41.587
  14   44.087  43.968  43.849  43.730  43.611  43.492  43.373  43.254  43.135  43.016  42.897  42.778  42.659  42.540  42.421
       42.302  42.183  42.063  41.944  41.825  41.706  41.587
  15   44.087  43.968  43.849  43.730  43.611  43.492  43.373  43.254  43.135  43.016  42.897  42.778  42.659  42.540  42.421
       42.302  42.183  42.063  41.944  41.825  41.706  41.587
  16   44.087  43.968  43.849  43.730  43.611  43.492  43.373  43.254  43.135  43.016  42.897  42.778  42.659  42.540  42.421
       42.302  42.183  42.063  41.944  41.825  41.706  41.587
  17   44.087  43.968  43.849  43.730  43.611  43.492  43.373  43.254  43.135  43.016  42.897  42.778  42.659  42.540  42.421
       42.302  42.183  42.063  41.944  41.825  41.706  41.587
  18   44.087  43.968  43.849  43.730  43.611  43.492  43.373  43.254  43.135  43.016  42.897  42.778  42.659  42.540  42.421
       42.302  42.183  42.063  41.944  41.825  41.706  41.587
  19   44.087  43.968  43.849  43.730  43.611  43.492  43.373  43.254  43.135  43.016  42.897  42.778  42.659  42.540  42.421
       42.302  42.183  42.063  41.944  41.825  41.706  41.587



             MODEL LAYER BOTTOM EL. FOR LAYER   2
 READING ON UNIT   51 WITH FORMAT: (FREE)              

           1       2       3       4       5       6       7       8       9      10      11      12      13      14      15
          16      17      18      19      20      21      22
 ...........................................................................................................................
   1   38.532  38.413  38.294  38.175  38.056  37.937  37.817  37.698  37.579  37.460  37.341  37.222  37.103  36.984  36.865
       36.746  36.627  36.508  36.389  36.270  36.151  36.032
   2   38.532  38.413  38.294  38.175  38.056  37.937  37.817  37.698  37.579  37.460  37.341  37.222  37.103  36.984  36.865
       36.746  36.627  36.508  36.389  36.270  36.151  36.032
   3   38.532  38.413  38.294  38.175  38.056  37.937  37.817  37.698  37.579  37.460  37.341  37.222  37.103  36.984  36.865
       36.746  36.627  36.508  36.389  36.270  36.151  36.032
   4   38.532  38.413  38.294  38.175  38.056  37.937  37.817  37.698  37.579  37.460  37.341  37.222  37.103  36.984  36.865
       36.746  36.627  36.508  36.389  36.270  36.151  36.032
   5   38.532  38.413  38.294  38.175  38.056  37.937  37.817  37.698  37.579  37.460  37.341  37.222  37.103  36.984  36.865
       36.746  36.627  36.508  36.389  36.270  36.151  36.032
   6   38.532  38.413  38.294  38.175  38.056  37.937  37.817  37.698  37.579  37.460  37.341  37.222  37.103  36.984  36.865
       36.746  36.627  36.508  36.389  36.270  36.151  36.032
   7   38.532  38.413  38.294  38.175  38.056  37.937  37.817  37.698  37.579  37.460  37.341  37.222  37.103  36.984  36.865
       36.746  36.627  36.508  36.389  36.270  36.151  36.032
   8   38.532  38.413  38.294  38.175  38.056  37.937  37.817  37.698  37.579  37.460  37.341  37.222  37.103  36.984  36.865
       36.746  36.627  36.508  36.389  36.270  36.151  36.032
   9   38.532  38.413  38.294  38.175  38.056  37.937  37.817  37.698  37.579  37.460  37.341  37.222  37.103  36.984  36.865
       36.746  36.627  36.508  36.389  36.270  36.151  36.032
  10   38.532  38.413  38.294  38.175  38.056  37.937  37.817  37.698  37.579  37.460  37.341  37.222  37.103  36.984  36.865
       36.746  36.627  36.508  36.389  36.270  36.151  36.032
  11   38.532  38.413  38.294  38.175  38.056  37.937  37.817  37.698  37.579  37.460  37.341  37.222  37.103  36.984  36.865
       36.746  36.627  36.508  36.389  36.270  36.151  36.032
  12   38.532  38.413  38.294  38.175  38.056  37.937  37.817  37.698  37.579  37.460  37.341  37.222  37.103  36.984  36.865
       36.746  36.627  36.508  36.389  36.270  36.151  36.032
  13   38.532  38.413  38.294  38.175  38.056  37.937  37.817  37.698  37.579  37.460  37.341  37.222  37.103  36.984  36.865
       36.746  36.627  36.508  36.389  36.270  36.151  36.032
  14   38.532  38.413  38.294  38.175  38.056  37.937  37.817  37.698  37.579  37.460  37.341  37.222  37.103  36.984  36.865
       36.746  36.627  36.508  36.389  36.270  36.151  36.032
  15   38.532  38.413  38.294  38.175  38.056  37.937  37.817  37.698  37.579  37.460  37.341  37.222  37.103  36.984  36.865
       36.746  36.627  36.508  36.389  36.270  36.151  36.032
  16   38.532  38.413  38.294  38.175  38.056  37.937  37.817  37.698  37.579  37.460  37.341  37.222  37.103  36.984  36.865
       36.746  36.627  36.508  36.389  36.270  36.151  36.032
  17   38.532  38.413  38.294  38.175  38.056  37.937  37.817  37.698  37.579  37.460  37.341  37.222  37.103  36.984  36.865
       36.746  36.627  36.508  36.389  36.270  36.151  36.032
  18   38.532  38.413  38.294  38.175  38.056  37.937  37.817  37.698  37.579  37.460  37.341  37.222  37.103  36.984  36.865
       36.746  36.627  36.508  36.389  36.270  36.151  36.032
  19   38.532  38.413  38.294  38.175  38.056  37.937  37.817  37.698  37.579  37.460  37.341  37.222  37.103  36.984  36.865
       36.746  36.627  36.508  36.389  36.270  36.151  36.032



             MODEL LAYER BOTTOM EL. FOR LAYER   3
 READING ON UNIT   51 WITH FORMAT: (FREE)              

           1       2       3       4       5       6       7       8       9      10      11      12      13      14      15
          16      17      18      19      20      21      22
 ...........................................................................................................................
   1   32.976  32.857  32.738  32.619  32.500  32.381  32.262  32.143  32.024  31.905  31.786  31.667  31.548  31.429  31.310
       31.190  31.071  30.952  30.833  30.714  30.595  30.476
   2   32.976  32.857  32.738  32.619  32.500  32.381  32.262  32.143  32.024  31.905  31.786  31.667  31.548  31.429  31.310
       31.190  31.071  30.952  30.833  30.714  30.595  30.476
   3   32.976  32.857  32.738  32.619  32.500  32.381  32.262  32.143  32.024  31.905  31.786  31.667  31.548  31.429  31.310
       31.190  31.071  30.952  30.833  30.714  30.595  30.476
   4   32.976  32.857  32.738  32.619  32.500  32.381  32.262  32.143  32.024  31.905  31.786  31.667  31.548  31.429  31.310
       31.190  31.071  30.952  30.833  30.714  30.595  30.476
   5   32.976  32.857  32.738  32.619  32.500  32.381  32.262  32.143  32.024  31.905  31.786  31.667  31.548  31.429  31.310
       31.190  31.071  30.952  30.833  30.714  30.595  30.476
   6   32.976  32.857  32.738  32.619  32.500  32.381  32.262  32.143  32.024  31.905  31.786  31.667  31.548  31.429  31.310
       31.190  31.071  30.952  30.833  30.714  30.595  30.476
   7   32.976  32.857  32.738  32.619  32.500  32.381  32.262  32.143  32.024  31.905  31.786  31.667  31.548  31.429  31.310
       31.190  31.071  30.952  30.833  30.714  30.595  30.476
   8   32.976  32.857  32.738  32.619  32.500  32.381  32.262  32.143  32.024  31.905  31.786  31.667  31.548  31.429  31.310
       31.190  31.071  30.952  30.833  30.714  30.595  30.476
   9   32.976  32.857  32.738  32.619  32.500  32.381  32.262  32.143  32.024  31.905  31.786  31.667  31.548  31.429  31.310
       31.190  31.071  30.952  30.833  30.714  30.595  30.476
  10   32.976  32.857  32.738  32.619  32.500  32.381  32.262  32.143  32.024  31.905  31.786  31.667  31.548  31.429  31.310
       31.190  31.071  30.952  30.833  30.714  30.595  30.476
  11   32.976  32.857  32.738  32.619  32.500  32.381  32.262  32.143  32.024  31.905  31.786  31.667  31.548  31.429  31.310
       31.190  31.071  30.952  30.833  30.714  30.595  30.476
  12   32.976  32.857  32.738  32.619  32.500  32.381  32.262  32.143  32.024  31.905  31.786  31.667  31.548  31.429  31.310
       31.190  31.071  30.952  30.833  30.714  30.595  30.476
  13   32.976  32.857  32.738  32.619  32.500  32.381  32.262  32.143  32.024  31.905  31.786  31.667  31.548  31.429  31.310
       31.190  31.071  30.952  30.833  30.714  30.595  30.476
  14   32.976  32.857  32.738  32.619  32.500  32.381  32.262  32.143  32.024  31.905  31.786  31.667  31.548  31.429  31.310
       31.190  31.071  30.952  30.833  30.714  30.595  30.476
  15   32.976  32.857  32.738  32.619  32.500  32.381  32.262  32.143  32.024  31.905  31.786  31.667  31.548  31.429  31.310
       31.190  31.071  30.952  30.833  30.714  30.595  30.476
  16   32.976  32.857  32.738  32.619  32.500  32.381  32.262  32.143  32.024  31.905  31.786  31.667  31.548  31.429  31.310
       31.190  31.071  30.952  30.833  30.714  30.595  30.476
  17   32.976  32.857  32.738  32.619  32.500  32.381  32.262  32.143  32.024  31.905  31.786  31.667  31.548  31.429  31.310
       31.190  31.071  30.952  30.833  30.714  30.595  30.476
  18   32.976  32.857  32.738  32.619  32.500  32.381  32.262  32.143  32.024  31.905  31.786  31.667  31.548  31.429  31.310
       31.190  31.071  30.952  30.833  30.714  30.595  30.476
  19   32.976  32.857  32.738  32.619  32.500  32.381  32.262  32.143  32.024  31.905  31.786  31.667  31.548  31.429  31.310
       31.190  31.071  30.952  30.833  30.714  30.595  30.476



             MODEL LAYER BOTTOM EL. FOR LAYER   4
 READING ON UNIT   51 WITH FORMAT: (FREE)              

           1       2       3       4       5       6       7       8       9      10      11      12      13      14      15
          16      17      18      19      20      21      22
 ...........................................................................................................................
   1   27.421  27.302  27.183  27.063  26.944  26.825  26.706  26.587  26.468  26.349  26.230  26.111  25.992  25.873  25.754
       25.635  25.516  25.397  25.278  25.159  25.040  24.921
   2   27.421  27.302  27.183  27.063  26.944  26.825  26.706  26.587  26.468  26.349  26.230  26.111  25.992  25.873  25.754
       25.635  25.516  25.397  25.278  25.159  25.040  24.921
   3   27.421  27.302  27.183  27.063  26.944  26.825  26.706  26.587  26.468  26.349  26.230  26.111  25.992  25.873  25.754
       25.635  25.516  25.397  25.278  25.159  25.040  24.921
   4   27.421  27.302  27.183  27.063  26.944  26.825  26.706  26.587  26.468  26.349  26.230  26.111  25.992  25.873  25.754
       25.635  25.516  25.397  25.278  25.159  25.040  24.921
   5   27.421  27.302  27.183  27.063  26.944  26.825  26.706  26.587  26.468  26.349  26.230  26.111  25.992  25.873  25.754
       25.635  25.516  25.397  25.278  25.159  25.040  24.921
   6   27.421  27.302  27.183  27.063  26.944  26.825  26.706  26.587  26.468  26.349  26.230  26.111  25.992  25.873  25.754
       25.635  25.516  25.397  25.278  25.159  25.040  24.921
   7   27.421  27.302  27.183  27.063  26.944  26.825  26.706  26.587  26.468  26.349  26.230  26.111  25.992  25.873  25.754
       25.635  25.516  25.397  25.278  25.159  25.040  24.921
   8   27.421  27.302  27.183  27.063  26.944  26.825  26.706  26.587  26.468  26.349  26.230  26.111  25.992  25.873  25.754
       25.635  25.516  25.397  25.278  25.159  25.040  24.921
   9   27.421  27.302  27.183  27.063  26.944  26.825  26.706  26.587  26.468  26.349  26.230  26.111  25.992  25.873  25.754
       25.635  25.516  25.397  25.278  25.159  25.040  24.921
  10   27.421  27.302  27.183  27.063  26.944  26.825  26.706  26.587  26.468  26.349  26.230  26.111  25.992  25.873  25.754
       25.635  25.516  25.397  25.278  25.159  25.040  24.921
  11   27.421  27.302  27.183  27.063  26.944  26.825  26.706  26.587  26.468  26.349  26.230  26.111  25.992  25.873  25.754
       25.635  25.516  25.397  25.278  25.159  25.040  24.921
  12   27.421  27.302  27.183  27.063  26.944  26.825  26.706  26.587  26.468  26.349  26.230  26.111  25.992  25.873  25.754
       25.635  25.516  25.397  25.278  25.159  25.040  24.921
  13   27.421  27.302  27.183  27.063  26.944  26.825  26.706  26.587  26.468  26.349  26.230  26.111  25.992  25.873  25.754
       25.635  25.516  25.397  25.278  25.159  25.040  24.921
  14   27.421  27.302  27.183  27.063  26.944  26.825  26.706  26.587  26.468  26.349  26.230  26.111  25.992  25.873  25.754
       25.635  25.516  25.397  25.278  25.159  25.040  24.921
  15   27.421  27.302  27.183  27.063  26.944  26.825  26.706  26.587  26.468  26.349  26.230  26.111  25.992  25.873  25.754
       25.635  25.516  25.397  25.278  25.159  25.040  24.921
  16   27.421  27.302  27.183  27.063  26.944  26.825  26.706  26.587  26.468  26.349  26.230  26.111  25.992  25.873  25.754
       25.635  25.516  25.397  25.278  25.159  25.040  24.921
  17   27.421  27.302  27.183  27.063  26.944  26.825  26.706  26.587  26.468  26.349  26.230  26.111  25.992  25.873  25.754
       25.635  25.516  25.397  25.278  25.159  25.040  24.921
  18   27.421  27.302  27.183  27.063  26.944  26.825  26.706  26.587  26.468  26.349  26.230  26.111  25.992  25.873  25.754
       25.635  25.516  25.397  25.278  25.159  25.040  24.921
  19   27.421  27.302  27.183  27.063  26.944  26.825  26.706  26.587  26.468  26.349  26.230  26.111  25.992  25.873  25.754
       25.635  25.516  25.397  25.278  25.159  25.040  24.921



             MODEL LAYER BOTTOM EL. FOR LAYER   5
 READING ON UNIT   51 WITH FORMAT: (FREE)              

           1       2       3       4       5       6       7       8       9      10      11      12      13      14      15
          16      17      18      19      20      21      22
 ...........................................................................................................................
   1   21.865  21.746  21.627  21.508  21.389  21.270  21.151  21.032  20.913  20.794  20.675  20.556  20.437  20.317  20.198
       20.079  19.960  19.841  19.722  19.603  19.484  19.365
   2   21.865  21.746  21.627  21.508  21.389  21.270  21.151  21.032  20.913  20.794  20.675  20.556  20.437  20.317  20.198
       20.079  19.960  19.841  19.722  19.603  19.484  19.365
   3   21.865  21.746  21.627  21.508  21.389  21.270  21.151  21.032  20.913  20.794  20.675  20.556  20.437  20.317  20.198
       20.079  19.960  19.841  19.722  19.603  19.484  19.365
   4   21.865  21.746  21.627  21.508  21.389  21.270  21.151  21.032  20.913  20.794  20.675  20.556  20.437  20.317  20.198
       20.079  19.960  19.841  19.722  19.603  19.484  19.365
   5   21.865  21.746  21.627  21.508  21.389  21.270  21.151  21.032  20.913  20.794  20.675  20.556  20.437  20.317  20.198
       20.079  19.960  19.841  19.722  19.603  19.484  19.365
   6   21.865  21.746  21.627  21.508  21.389  21.270  21.151  21.032  20.913  20.794  20.675  20.556  20.437  20.317  20.198
       20.079  19.960  19.841  19.722  19.603  19.484  19.365
   7   21.865  21.746  21.627  21.508  21.389  21.270  21.151  21.032  20.913  20.794  20.675  20.556  20.437  20.317  20.198
       20.079  19.960  19.841  19.722  19.603  19.484  19.365
   8   21.865  21.746  21.627  21.508  21.389  21.270  21.151  21.032  20.913  20.794  20.675  20.556  20.437  20.317  20.198
       20.079  19.960  19.841  19.722  19.603  19.484  19.365
   9   21.865  21.746  21.627  21.508  21.389  21.270  21.151  21.032  20.913  20.794  20.675  20.556  20.437  20.317  20.198
       20.079  19.960  19.841  19.722  19.603  19.484  19.365
  10   21.865  21.746  21.627  21.508  21.389  21.270  21.151  21.032  20.913  20.794  20.675  20.556  20.437  20.317  20.198
       20.079  19.960  19.841  19.722  19.603  19.484  19.365
  11   21.865  21.746  21.627  21.508  21.389  21.270  21.151  21.032  20.913  20.794  20.675  20.556  20.437  20.317  20.198
       20.079  19.960  19.841  19.722  19.603  19.484  19.365
  12   21.865  21.746  21.627  21.508  21.389  21.270  21.151  21.032  20.913  20.794  20.675  20.556  20.437  20.317  20.198
       20.079  19.960  19.841  19.722  19.603  19.484  19.365
  13   21.865  21.746  21.627  21.508  21.389  21.270  21.151  21.032  20.913  20.794  20.675  20.556  20.437  20.317  20.198
       20.079  19.960  19.841  19.722  19.603  19.484  19.365
  14   21.865  21.746  21.627  21.508  21.389  21.270  21.151  21.032  20.913  20.794  20.675  20.556  20.437  20.317  20.198
       20.079  19.960  19.841  19.722  19.603  19.484  19.365
  15   21.865  21.746  21.627  21.508  21.389  21.270  21.151  21.032  20.913  20.794  20.675  20.556  20.437  20.317  20.198
       20.079  19.960  19.841  19.722  19.603  19.484  19.365
  16   21.865  21.746  21.627  21.508  21.389  21.270  21.151  21.032  20.913  20.794  20.675  20.556  20.437  20.317  20.198
       20.079  19.960  19.841  19.722  19.603  19.484  19.365
  17   21.865  21.746  21.627  21.508  21.389  21.270  21.151  21.032  20.913  20.794  20.675  20.556  20.437  20.317  20.198
       20.079  19.960  19.841  19.722  19.603  19.484  19.365
  18   21.865  21.746  21.627  21.508  21.389  21.270  21.151  21.032  20.913  20.794  20.675  20.556  20.437  20.317  20.198
       20.079  19.960  19.841  19.722  19.603  19.484  19.365
  19   21.865  21.746  21.627  21.508  21.389  21.270  21.151  21.032  20.913  20.794  20.675  20.556  20.437  20.317  20.198
       20.079  19.960  19.841  19.722  19.603  19.484  19.365


 STRESS PERIOD     LENGTH       TIME STEPS     MULTIPLIER FOR DELT    SS FLAG
 ----------------------------------------------------------------------------
        1         1.000000          1                    1.000         SS

 STEADY-STATE SIMULATION



 
 #Meandering River - 5 layers, lgr natural gradient - 02/15/2006                 
 THE FREE FORMAT OPTION HAS BEEN SELECTED
 CALCULATE FLOW BETWEEN ADJACENT CONSTANT-HEAD CELLS

 OPENING FILE ON UNIT   99:
 sfrex2_child.ib                                                                                                                                                                                         



                     BOUNDARY ARRAY FOR LAYER   1
 READING ON UNIT   99 WITH FORMAT: (FREE)              

         1    2    3    4    5    6    7    8    9   10   11   12   13   14   15   16   17   18   19   20   21   22
 ..................................................................................................................
   1   -59  -59  -59  -59  -59  -59  -59  -59  -59  -59  -59  -59  -59  -59  -59  -59  -59  -59  -59  -59  -59  -59
   2   -59    1    1    1    1    1    1    1    1    1    1    1    1    1    1    1    1    1    1    1    1  -59
   3   -59    1    1    1    1    1    1    1    1    1    1    1    1    1    1    1    1    1    1    1    1  -59
   4   -59    1    1    1    1    1    1    1    1    1    1    1    1    1    1    1    1    1    1    1    1  -59
   5   -59    1    1    1    1    1    1    1    1    1    1    1    1    1    1    1    1    1    1    1    1  -59
   6   -59    1    1    1    1    1    1    1    1    1    1    1    1    1    1    1    1    1    1    1    1  -59
   7   -59    1    1    1    1    1    1    1    1    1    1    1    1    1    1    1    1    1    1    1    1  -59
   8   -59    1    1    1    1    1    1    1    1    1    1    1    1    1    1    1    1    1    1    1    1  -59
   9   -59    1    1    1    1    1    1    1    1    1    1    1    1    1    1    1    1    1    1    1    1  -59
  10   -59    1    1    1    1    1    1    1    1    1    1    1    1    1    1    1    1    1    1    1    1  -59
  11   -59    1    1    1    1    1    1    1    1    1    1    1    1    1    1    1    1    1    1    1    1  -59
  12   -59    1    1    1    1    1    1    1    1    1    1    1    1    1    1    1    1    1    1    1    1  -59
  13   -59    1    1    1    1    1    1    1    1    1    1    1    1    1    1    1    1    1    1    1    1  -59
  14   -59    1    1    1    1    1    1    1    1    1    1    1    1    1    1    1    1    1    1    1    1  -59
  15   -59    1    1    1    1    1    1    1    1    1    1    1    1    1    1    1    1    1    1    1    1  -59
  16   -59    1    1    1    1    1    1    1    1    1    1    1    1    1    1    1    1    1    1    1    1  -59
  17   -59    1    1    1    1    1    1    1    1    1    1    1    1    1    1    1    1    1    1    1    1  -59
  18   -59    1    1    1    1    1    1    1    1    1    1    1    1    1    1    1    1    1    1    1    1  -59
  19   -59  -59  -59  -59  -59  -59  -59  -59  -59  -59  -59  -59  -59  -59  -59  -59  -59  -59  -59  -59  -59  -59

 OPENING FILE ON UNIT   99:
 sfrex2_child.ib                                                                                                                                                                                         



                     BOUNDARY ARRAY FOR LAYER   2
 READING ON UNIT   99 WITH FORMAT: (FREE)              

         1    2    3    4    5    6    7    8    9   10   11   12   13   14   15   16   17   18   19   20   21   22
 ..................................................................................................................
   1   -59  -59  -59  -59  -59  -59  -59  -59  -59  -59  -59  -59  -59  -59  -59  -59  -59  -59  -59  -59  -59  -59
   2   -59    1    1    1    1    1    1    1    1    1    1    1    1    1    1    1    1    1    1    1    1  -59
   3   -59    1    1    1    1    1    1    1    1    1    1    1    1    1    1    1    1    1    1    1    1  -59
   4   -59    1    1    1    1    1    1    1    1    1    1    1    1    1    1    1    1    1    1    1    1  -59
   5   -59    1    1    1    1    1    1    1    1    1    1    1    1    1    1    1    1    1    1    1    1  -59
   6   -59    1    1    1    1    1    1    1    1    1    1    1    1    1    1    1    1    1    1    1    1  -59
   7   -59    1    1    1    1    1    1    1    1    1    1    1    1    1    1    1    1    1    1    1    1  -59
   8   -59    1    1    1    1    1    1    1    1    1    1    1    1    1    1    1    1    1    1    1    1  -59
   9   -59    1    1    1    1    1    1    1    1    1    1    1    1    1    1    1    1    1    1    1    1  -59
  10   -59    1    1    1    1    1    1    1    1    1    1    1    1    1    1    1    1    1    1    1    1  -59
  11   -59    1    1    1    1    1    1    1    1    1    1    1    1    1    1    1    1    1    1    1    1  -59
  12   -59    1    1    1    1    1    1    1    1    1    1    1    1    1    1    1    1    1    1    1    1  -59
  13   -59    1    1    1    1    1    1    1    1    1    1    1    1    1    1    1    1    1    1    1    1  -59
  14   -59    1    1    1    1    1    1    1    1    1    1    1    1    1    1    1    1    1    1    1    1  -59
  15   -59    1    1    1    1    1    1    1    1    1    1    1    1    1    1    1    1    1    1    1    1  -59
  16   -59    1    1    1    1    1    1    1    1    1    1    1    1    1    1    1    1    1    1    1    1  -59
  17   -59    1    1    1    1    1    1    1    1    1    1    1    1    1    1    1    1    1    1    1    1  -59
  18   -59    1    1    1    1    1    1    1    1    1    1    1    1    1    1    1    1    1    1    1    1  -59
  19   -59  -59  -59  -59  -59  -59  -59  -59  -59  -59  -59  -59  -59  -59  -59  -59  -59  -59  -59  -59  -59  -59

 OPENING FILE ON UNIT   99:
 sfrex2_child.ib                                                                                                                                                                                         



                     BOUNDARY ARRAY FOR LAYER   3
 READING ON UNIT   99 WITH FORMAT: (FREE)              

         1    2    3    4    5    6    7    8    9   10   11   12   13   14   15   16   17   18   19   20   21   22
 ..................................................................................................................
   1   -59  -59  -59  -59  -59  -59  -59  -59  -59  -59  -59  -59  -59  -59  -59  -59  -59  -59  -59  -59  -59  -59
   2   -59    1    1    1    1    1    1    1    1    1    1    1    1    1    1    1    1    1    1    1    1  -59
   3   -59    1    1    1    1    1    1    1    1    1    1    1    1    1    1    1    1    1    1    1    1  -59
   4   -59    1    1    1    1    1    1    1    1    1    1    1    1    1    1    1    1    1    1    1    1  -59
   5   -59    1    1    1    1    1    1    1    1    1    1    1    1    1    1    1    1    1    1    1    1  -59
   6   -59    1    1    1    1    1    1    1    1    1    1    1    1    1    1    1    1    1    1    1    1  -59
   7   -59    1    1    1    1    1    1    1    1    1    1    1    1    1    1    1    1    1    1    1    1  -59
   8   -59    1    1    1    1    1    1    1    1    1    1    1    1    1    1    1    1    1    1    1    1  -59
   9   -59    1    1    1    1    1    1    1    1    1    1    1    1    1    1    1    1    1    1    1    1  -59
  10   -59    1    1    1    1    1    1    1    1    1    1    1    1    1    1    1    1    1    1    1    1  -59
  11   -59    1    1    1    1    1    1    1    1    1    1    1    1    1    1    1    1    1    1    1    1  -59
  12   -59    1    1    1    1    1    1    1    1    1    1    1    1    1    1    1    1    1    1    1    1  -59
  13   -59    1    1    1    1    1    1    1    1    1    1    1    1    1    1    1    1    1    1    1    1  -59
  14   -59    1    1    1    1    1    1    1    1    1    1    1    1    1    1    1    1    1    1    1    1  -59
  15   -59    1    1    1    1    1    1    1    1    1    1    1    1    1    1    1    1    1    1    1    1  -59
  16   -59    1    1    1    1    1    1    1    1    1    1    1    1    1    1    1    1    1    1    1    1  -59
  17   -59    1    1    1    1    1    1    1    1    1    1    1    1    1    1    1    1    1    1    1    1  -59
  18   -59    1    1    1    1    1    1    1    1    1    1    1    1    1    1    1    1    1    1    1    1  -59
  19   -59  -59  -59  -59  -59  -59  -59  -59  -59  -59  -59  -59  -59  -59  -59  -59  -59  -59  -59  -59  -59  -59

 OPENING FILE ON UNIT   99:
 sfrex2_child.ib                                                                                                                                                                                         



                     BOUNDARY ARRAY FOR LAYER   4
 READING ON UNIT   99 WITH FORMAT: (FREE)              

         1    2    3    4    5    6    7    8    9   10   11   12   13   14   15   16   17   18   19   20   21   22
 ..................................................................................................................
   1   -59  -59  -59  -59  -59  -59  -59  -59  -59  -59  -59  -59  -59  -59  -59  -59  -59  -59  -59  -59  -59  -59
   2   -59    1    1    1    1    1    1    1    1    1    1    1    1    1    1    1    1    1    1    1    1  -59
   3   -59    1    1    1    1    1    1    1    1    1    1    1    1    1    1    1    1    1    1    1    1  -59
   4   -59    1    1    1    1    1    1    1    1    1    1    1    1    1    1    1    1    1    1    1    1  -59
   5   -59    1    1    1    1    1    1    1    1    1    1    1    1    1    1    1    1    1    1    1    1  -59
   6   -59    1    1    1    1    1    1    1    1    1    1    1    1    1    1    1    1    1    1    1    1  -59
   7   -59    1    1    1    1    1    1    1    1    1    1    1    1    1    1    1    1    1    1    1    1  -59
   8   -59    1    1    1    1    1    1    1    1    1    1    1    1    1    1    1    1    1    1    1    1  -59
   9   -59    1    1    1    1    1    1    1    1    1    1    1    1    1    1    1    1    1    1    1    1  -59
  10   -59    1    1    1    1    1    1    1    1    1    1    1    1    1    1    1    1    1    1    1    1  -59
  11   -59    1    1    1    1    1    1    1    1    1    1    1    1    1    1    1    1    1    1    1    1  -59
  12   -59    1    1    1    1    1    1    1    1    1    1    1    1    1    1    1    1    1    1    1    1  -59
  13   -59    1    1    1    1    1    1    1    1    1    1    1    1    1    1    1    1    1    1    1    1  -59
  14   -59    1    1    1    1    1    1    1    1    1    1    1    1    1    1    1    1    1    1    1    1  -59
  15   -59    1    1    1    1    1    1    1    1    1    1    1    1    1    1    1    1    1    1    1    1  -59
  16   -59    1    1    1    1    1    1    1    1    1    1    1    1    1    1    1    1    1    1    1    1  -59
  17   -59    1    1    1    1    1    1    1    1    1    1    1    1    1    1    1    1    1    1    1    1  -59
  18   -59    1    1    1    1    1    1    1    1    1    1    1    1    1    1    1    1    1    1    1    1  -59
  19   -59  -59  -59  -59  -59  -59  -59  -59  -59  -59  -59  -59  -59  -59  -59  -59  -59  -59  -59  -59  -59  -59

           BOUNDARY ARRAY =            -59 FOR LAYER   5

 AQUIFER HEAD WILL BE SET TO  -333.00     AT ALL NO-FLOW NODES (IBOUND=0).

             INITIAL HEAD =   47.0000     FOR LAYER   1

             INITIAL HEAD =   47.0000     FOR LAYER   2

             INITIAL HEAD =   47.0000     FOR LAYER   3

             INITIAL HEAD =   47.0000     FOR LAYER   4

             INITIAL HEAD =   47.0000     FOR LAYER   5

 OUTPUT CONTROL IS SPECIFIED ONLY AT TIME STEPS FOR WHICH OUTPUT IS DESIRED
 HEAD PRINT FORMAT CODE IS   6    DRAWDOWN PRINT FORMAT CODE IS   0
 HEADS WILL BE SAVED ON UNIT   31    DRAWDOWNS WILL BE SAVED ON UNIT    0

 LGR -- LOCAL GRID REFINEMENT, VERSION 1.2.0 05/18/2010
        INPUT READ FOR MODEL  2 DEFINED BY NAME FILE sfrex2_child.nam

 LOCAL GRID REFINEMENT IS ACTIVE FOR CHILD ONLY
               STARTING HEADS FROM PARENT WILL BE USED: ISHFLG =   1
               VALUE IN IBOUND INDICATING BOUNDARY INTERFACE =  -59
               BOUNDARY HEADS WILL BE SAVED ON UNIT  80
               BOUNDARY FLUXES WILL BE SAVED ON UNIT  81
               MAX NUMBER OF LGR ITERATIONS = 15
               LGR ITERATION RESULTS WRITTEN TO SCREEN: IOUTLGR =  -1

               WEIGHTING FACTORS FOR RELAXATION
               RELAXH(HEAD) RELAXF(FLUX)
               -------------------------
               0.400E+00      0.400E+00

               CLOSURE CRITERIA FOR LGR ITERATIONS
               HCLOSELGR       FCLOSELGR
               -------------------------
               5.000E-03      5.000E-02

               STARTING LAYER, ROW, COLUMN=   1,   6,   2
               ENDING LAYER, ROW, COLUMN=     2,  12,   9
               NCPP: NUMBER OF CHILD CELLS PER WIDTH OF PARENT CELL= 3
               NCPPL: NUMBER OF CHILD LAYERS IN LAYER  1 OF PARENT = 3
               NCPPL: NUMBER OF CHILD LAYERS IN LAYER  2 OF PARENT = 3

 BCF -- BLOCK-CENTERED FLOW PACKAGE, VERSION 7, 5/2/2005
         INPUT READ FROM UNIT 21
 STEADY-STATE SIMULATION
 CELL-BY-CELL FLOWS WILL BE SAVED ON UNIT 41
 HEAD AT CELLS THAT CONVERT TO DRY=  -888.00    
 WETTING CAPABILITY IS NOT ACTIVE
      LAYER  LAYER-TYPE CODE     INTERBLOCK T
      --------------------------------------------
         1            1          0 -- HARMONIC    
         2            3          0 -- HARMONIC    
         3            3          0 -- HARMONIC    
         4            3          0 -- HARMONIC    
         5            3          0 -- HARMONIC    

 COLUMN TO ROW ANISOTROPY =   1.00000    

    HYD. COND. ALONG ROWS =   1.00000     FOR LAYER   1

 VERT HYD COND /THICKNESS =  0.180000     FOR LAYER   1

    HYD. COND. ALONG ROWS =   1.00000     FOR LAYER   2

 VERT HYD COND /THICKNESS =  0.180000     FOR LAYER   2

    HYD. COND. ALONG ROWS =   1.00000     FOR LAYER   3

 VERT HYD COND /THICKNESS =  0.180000     FOR LAYER   3

    HYD. COND. ALONG ROWS =   1.00000     FOR LAYER   4

 VERT HYD COND /THICKNESS =  0.180000     FOR LAYER   4

    HYD. COND. ALONG ROWS =   1.00000     FOR LAYER   5

 SFR7 -- STREAMFLOW ROUTING PACKAGE, VERSION 7.1.02, 06/29/2009
         INPUT READ FROM UNIT  25
 # MEANDERING STREAM--> ROUTING FROM PARENT TO CHILD THEN CHILD TO PARENT
 # STEFFEN MEHL: 07/10/2009
 AUXILIARY STREAM FLOW ROUTING VARIABLE: LGRGRID         
 AUXILIARY STREAM FLOW ROUTING VARIABLE: LGRSEG          


 NUMBER OF STREAM REACHES IS   94

 NUMBER OF STREAM SEGMENTS IS    1

 NUMBER OF STREAM PARAMETERS IS    0

 NUMBER OF STREAM SEGMENTS DEFINED USING PARAMETERS IS    0

 MAXIMUM ERROR FOR STREAM LEAKAGE RATES IS  1.00E-04

 CONSTANT FOR MANNINGS EQUATION IS  1.0000E+00



 STREAM OUTPUT WILL BE WRITTEN TO FILE ON UNIT  39


   STREAM NETWORK DESCRIPTION: 

   LAYER    ROW    COL   SEGMENT   REACH     LENGTH
                          NUMBER   NUMBER    IN CELL
   --------------------------------------------------
      1      1      7       1        1    2.4500E+01
      1      2      7       1        2    2.5548E+01
      1      2      6       1        3    1.4678E+00
      1      3      6       1        4    2.4638E+01
      1      4      6       1        5    3.1966E+01
      1      4      5       1        6    2.6376E+01
      1      5      5       1        7    1.1774E+01
      1      5      4       1        8    2.2922E+01
      1      6      4       1        9    2.4950E+01
      1      7      4       1       10    2.3878E+01
      1      8      4       1       11    2.3190E+01
      1      9      4       1       12    2.4762E+01
      1     10      4       1       13    2.4909E+01
      1     10      5       1       14    3.4366E+01
      1     10      6       1       15    3.7835E+01
      1     10      7       1       16    6.7398E+00
      1      9      7       1       17    2.5151E+01
      1      8      7       1       18    2.2888E+01
      1      7      7       1       19    2.4630E+01
      1      6      7       1       20    2.4105E+01
      1      6      8       1       21    3.5873E+01
      1      6      9       1       22    2.0101E+01
      1      7      9       1       23    3.5637E+01
      1      7     10       1       24    3.9274E+01
      1      8     10       1       25    7.8477E+00
      1      8     11       1       26    1.5481E+01
      1      9     11       1       27    2.2883E+01
      1     10     11       1       28    6.6126E+00
      1     10     10       1       29    3.1996E+01
      1     11     10       1       30    9.4387E+00
      1     11      9       1       31    3.5386E+01
      1     11      8       1       32    3.5471E+01
      1     11      7       1       33    2.3500E+01
      1     12      7       1       34    1.8414E+01
      1     12      6       1       35    1.2017E+01
      1     13      6       1       36    2.4692E+01
      1     14      6       1       37    2.3105E+01
      1     15      6       1       38    2.3700E+01
      1     16      6       1       39    1.9596E+01
      1     16      7       1       40    5.7556E+00
      1     17      7       1       41    3.4423E+01
      1     17      8       1       42    3.6132E+01
      1     17      9       1       43    7.4424E+00
      1     16      9       1       44    3.5566E+01
      1     16     10       1       45    1.6160E+00
      1     15     10       1       46    3.2316E+01
      1     14     10       1       47    2.0132E+01
      1     14     11       1       48    6.5242E+00
      1     13     11       1       49    2.5576E+01
      1     12     11       1       50    2.5576E+01
      1     11     11       1       51    2.4304E+01
      1     10     11       1       52    1.9159E+00
      1     10     12       1       53    2.1931E+01
      1      9     12       1       54    2.3847E+01
      1      8     12       1       55    2.3432E+01
      1      7     12       1       56    2.3249E+01
      1      6     12       1       57    2.3455E+01
      1      5     12       1       58    1.5172E+01
      1      5     13       1       59    1.1196E+01
      1      4     13       1       60    3.4932E+01
      1      3     13       1       61    4.4493E+00
      1      3     14       1       62    3.6034E+01
      1      3     15       1       63    3.8366E+01
      1      3     16       1       64    8.7669E-01
      1      4     16       1       65    3.0060E+01
      1      5     16       1       66    2.5352E+01
      1      6     16       1       67    2.3554E+01
      1      7     16       1       68    2.4692E+01
      1      8     16       1       69    2.6074E+01
      1      9     16       1       70    1.3543E+01
      1      9     15       1       71    1.3303E+01
      1     10     15       1       72    2.8145E+01
      1     11     15       1       73    2.4373E+01
      1     12     15       1       74    2.3214E+01
      1     13     15       1       75    2.3298E+01
      1     14     15       1       76    2.4628E+01
      1     15     15       1       77    2.7715E+01
      1     15     16       1       78    1.7645E+00
      1     16     16       1       79    3.9549E+01
      1     16     17       1       80    3.7144E+01
      1     16     18       1       81    1.4943E+01
      1     15     18       1       82    2.4851E+01
      1     14     18       1       83    2.3737E+01
      1     13     18       1       84    1.5968E+01
      1     13     19       1       85    1.0633E+01
      1     12     19       1       86    1.1426E+01
      1     12     18       1       87    2.0009E+01
      1     11     18       1       88    2.4641E+01
      1     10     18       1       89    2.7961E+01
      1      9     18       1       90    4.6453E+00
      1      9     19       1       91    3.6718E+01
      1      9     20       1       92    3.4469E+01
      1      9     21       1       93    3.4854E+01
      1      9     22       1       94    3.6491E+01

 *** WARNING *** STREAM SEGMENT    1 REACH NO.    1 IS CONNECTED TO A CONSTANT HEAD CELL.
 IBOUND ARRAY VALUE IS  -59 AT LAYER    1; ROW    1; COLUMN    7.
 NO STREAM LEAKAGE WILL BE ALLOWED-- SUGGEST REMOVING STREAM REACH FROM CELL OR CHANGE CELL TO VARIABLE HEAD.


 *** WARNING *** STREAM SEGMENT    1 REACH NO.   94 IS CONNECTED TO A CONSTANT HEAD CELL.
 IBOUND ARRAY VALUE IS  -59 AT LAYER    1; ROW    9; COLUMN   22.
 NO STREAM LEAKAGE WILL BE ALLOWED-- SUGGEST REMOVING STREAM REACH FROM CELL OR CHANGE CELL TO VARIABLE HEAD.





 DE4 -- D4 DIRECT SOLUTION PACKAGE, VERSION 7, 5/2/2005  INPUT READ FROM UNIT   22
 MAXIMUM ITERATIONS (EXTERNAL OR INTERNAL) = 59
 MAXIMUM EQUATIONS IN UPPER PART OF [A]:   1045
 MAXIMUM EQUATIONS IN LOWER PART OF [A]:   1045
 MAXIMUM BAND WIDTH OF [AL] PLUS 1:   96

                     SOLUTION BY D4 DIRECT SOLVER WITH EXTERNAL ITERATION
                     ----------------------------------------------------

 MAXIMUM ITERATIONS = 59
 RELAXATION-ACCELERATION PARAMETER =  1.000000
 HEAD CHANGE CRITERION FOR CLOSURE =    0.10000E-07
 D4 PRINTOUT INTERVAL =   1
 CONVERGENCE PRINTOUT WILL SHOW ONLY THE NUMBER OF ITERATIONS
 NON-LINEAR PROBLEM -- [A] MATRIX ELIMINATED EVERY TIME EQUATIONS ARE REFORMULATED
1
                            STRESS PERIOD NO.    1, LENGTH =   1.000000    
                            -----------------------------------------------

                              NUMBER OF TIME STEPS =     1

                               MULTIPLIER FOR DELT =     1.000

                            INITIAL TIME STEP SIZE =   1.000000    



 CLASSIFICATION & COUNT OF STREAM SEGMENTS BASED ON SOURCE OF INFLOW:

                HEADWATER     DIVERSION     RECEIVES TRIBUTARY FLOW
                ---------     ---------     -----------------------
                     1              0               0




 
 SOLVING FOR HEAD 

     162 UPPER PART EQS.       162 LOWER PART EQS.    BAND WIDTH + 1 =    3

     8 EXTERNAL ITERATIONS FOR TIME STEP   1 IN STRESS PERIOD    1

     162 UPPER PART EQS.       162 LOWER PART EQS.    BAND WIDTH + 1 =   17

     6 EXTERNAL ITERATIONS FOR TIME STEP   1 IN STRESS PERIOD    1

     680 UPPER PART EQS.       680 LOWER PART EQS.    BAND WIDTH + 1 =   69

     6 EXTERNAL ITERATIONS FOR TIME STEP   1 IN STRESS PERIOD    1

     162 UPPER PART EQS.       162 LOWER PART EQS.    BAND WIDTH + 1 =    3

     7 EXTERNAL ITERATIONS FOR TIME STEP   1 IN STRESS PERIOD    1

     162 UPPER PART EQS.       162 LOWER PART EQS.    BAND WIDTH + 1 =   17

     6 EXTERNAL ITERATIONS FOR TIME STEP   1 IN STRESS PERIOD    1

     680 UPPER PART EQS.       680 LOWER PART EQS.    BAND WIDTH + 1 =   69

     5 EXTERNAL ITERATIONS FOR TIME STEP   1 IN STRESS PERIOD    1

     162 UPPER PART EQS.       162 LOWER PART EQS.    BAND WIDTH + 1 =    3

     6 EXTERNAL ITERATIONS FOR TIME STEP   1 IN STRESS PERIOD    1

     162 UPPER PART EQS.       162 LOWER PART EQS.    BAND WIDTH + 1 =   17

     6 EXTERNAL ITERATIONS FOR TIME STEP   1 IN STRESS PERIOD    1

     680 UPPER PART EQS.       680 LOWER PART EQS.    BAND WIDTH + 1 =   69

     5 EXTERNAL ITERATIONS FOR TIME STEP   1 IN STRESS PERIOD    1

     162 UPPER PART EQS.       162 LOWER PART EQS.    BAND WIDTH + 1 =    3

     6 EXTERNAL ITERATIONS FOR TIME STEP   1 IN STRESS PERIOD    1

     162 UPPER PART EQS.       162 LOWER PART EQS.    BAND WIDTH + 1 =   17

     5 EXTERNAL ITERATIONS FOR TIME STEP   1 IN STRESS PERIOD    1

     680 UPPER PART EQS.       680 LOWER PART EQS.    BAND WIDTH + 1 =   69

     5 EXTERNAL ITERATIONS FOR TIME STEP   1 IN STRESS PERIOD    1

     162 UPPER PART EQS.       162 LOWER PART EQS.    BAND WIDTH + 1 =    3

     7 EXTERNAL ITERATIONS FOR TIME STEP   1 IN STRESS PERIOD    1

     162 UPPER PART EQS.       162 LOWER PART EQS.    BAND WIDTH + 1 =   17

     6 EXTERNAL ITERATIONS FOR TIME STEP   1 IN STRESS PERIOD    1

     680 UPPER PART EQS.       680 LOWER PART EQS.    BAND WIDTH + 1 =   69

     5 EXTERNAL ITERATIONS FOR TIME STEP   1 IN STRESS PERIOD    1

     162 UPPER PART EQS.       162 LOWER PART EQS.    BAND WIDTH + 1 =    3

     6 EXTERNAL ITERATIONS FOR TIME STEP   1 IN STRESS PERIOD    1

     162 UPPER PART EQS.       162 LOWER PART EQS.    BAND WIDTH + 1 =   17

     6 EXTERNAL ITERATIONS FOR TIME STEP   1 IN STRESS PERIOD    1

     680 UPPER PART EQS.       680 LOWER PART EQS.    BAND WIDTH + 1 =   69

     5 EXTERNAL ITERATIONS FOR TIME STEP   1 IN STRESS PERIOD    1

     162 UPPER PART EQS.       162 LOWER PART EQS.    BAND WIDTH + 1 =    3

     6 EXTERNAL ITERATIONS FOR TIME STEP   1 IN STRESS PERIOD    1

     162 UPPER PART EQS.       162 LOWER PART EQS.    BAND WIDTH + 1 =   17

     6 EXTERNAL ITERATIONS FOR TIME STEP   1 IN STRESS PERIOD    1

     680 UPPER PART EQS.       680 LOWER PART EQS.    BAND WIDTH + 1 =   69

     5 EXTERNAL ITERATIONS FOR TIME STEP   1 IN STRESS PERIOD    1

 OUTPUT CONTROL FOR STRESS PERIOD    1   TIME STEP   1
    PRINT HEAD FOR ALL LAYERS
    SAVE HEAD FOR ALL LAYERS
    PRINT BUDGET
    SAVE BUDGET
 UBUDSV SAVING "   CONSTANT HEAD" ON UNIT 41 AT TIME STEP  1, STRESS PERIOD    1
 UBUDSV SAVING "FLOW RIGHT FACE " ON UNIT 41 AT TIME STEP  1, STRESS PERIOD    1
 UBUDSV SAVING "FLOW FRONT FACE " ON UNIT 41 AT TIME STEP  1, STRESS PERIOD    1
 UBUDSV SAVING "FLOW LOWER FACE " ON UNIT 41 AT TIME STEP  1, STRESS PERIOD    1
1
              HEAD IN LAYER   1 AT END OF TIME STEP   1 IN STRESS PERIOD    1
  ---------------------------------------------------------------------------

           1       2       3       4       5       6       7       8       9      10      11      12      13      14      15
          16      17      18      19      20      21      22
 ...........................................................................................................................
   1  49.4538 49.3530 49.2522 49.1513 49.0382 48.9250 48.8119 48.6821 48.5522 48.4224 48.2981 48.1738 48.0495 47.9274 47.8054
      47.6834 47.5623 47.4412 47.3201 47.1992 47.0784 46.9576
   2  49.4479 49.3447 49.2415 49.1390 49.0380 48.9371 48.8248 48.6763 48.5434 48.4159 48.2921 48.1684 48.0440 47.9195 47.7996
      47.6810 47.5604 47.4395 47.3185 47.1980 47.0775 46.9570
   3  49.4419 49.3366 49.2313 49.1279 49.0364 48.9433 48.8012 48.6622 48.5334 48.4086 48.2857 48.1626 48.0386 47.9128 47.7956
      47.6786 47.5583 47.4376 47.3169 47.1967 47.0765 46.9564
   4  49.4360 49.3288 49.2211 49.1154 49.0287 48.9300 48.7744 48.6459 48.5234 48.4010 48.2776 48.1541 48.0347 47.9156 47.7958
      47.6767 47.5558 47.4356 47.3153 47.1954 47.0756 46.9558
   5  49.4314 49.3220 49.2113 49.0992 49.0090 48.8996 48.7580 48.6376 48.5183 48.3936 48.2644 48.1340 48.0277 47.9127 47.7920
      47.6692 47.5515 47.4328 47.3134 47.1940 47.0746 46.9553
   6  49.4267 49.3162 49.2040 49.0885 48.9893 48.8766 48.7469 48.6329 48.5159 48.3871 48.2528 48.1189 48.0248 47.9097 47.7881
      47.6644 47.5478 47.4296 47.3110 47.1923 47.0735 46.9548
   7  49.4221 49.3111 49.1985 49.0827 48.9742 48.8611 48.7430 48.6278 48.5106 48.3829 48.2463 48.1121 48.0228 47.9054 47.7829
      47.6621 47.5436 47.4238 47.3065 47.1894 47.0719 46.9543
   8  49.4187 49.3056 49.1898 49.0675 48.9590 48.8490 48.7378 48.6214 48.5027 48.3784 48.2497 48.1119 48.0179 47.8939 47.7672
      47.6521 47.5324 47.4087 47.2963 47.1836 47.0688 46.9502
   9  49.4152 49.3010 49.1839 49.0593 48.9454 48.8368 48.7306 48.6134 48.4947 48.3731 48.2484 48.1123 48.0120 47.8800 47.7473
      47.6496 47.5222 47.3905 47.2895 47.1815 47.0684 46.9461
  10  49.4118 49.2974 49.1815 49.0601 48.9318 48.8198 48.7138 48.5998 48.4845 48.3659 48.2386 48.1119 48.0062 47.8672 47.7300
      47.6536 47.5163 47.3766 47.3077 47.1963 47.0764 46.9563
  11  49.4094 49.2940 49.1777 49.0570 48.9176 48.7886 48.6758 48.5718 48.4675 48.3600 48.2232 48.1096 48.0015 47.8604 47.7229
      47.6527 47.5175 47.3802 47.3085 47.1974 47.0768 46.9547
  12  49.4070 49.2906 49.1733 49.0506 48.9011 48.7576 48.6746 48.5814 48.4733 48.3586 48.2171 48.1073 47.9974 47.8557 47.7182
      47.6505 47.5199 47.3863 47.3049 47.1945 47.0747 46.9531
  13  49.4046 49.2875 49.1692 49.0446 48.8875 48.7381 48.7011 48.5966 48.4775 48.3551 48.2182 48.1070 47.9945 47.8532 47.7151
      47.6480 47.5198 47.3910 47.3053 47.1923 47.0724 46.9515
  14  49.4031 49.2853 49.1664 49.0413 48.8838 48.7353 48.7071 48.5918 48.4630 48.3395 48.2210 48.1094 47.9940 47.8575 47.7201
      47.6456 47.5109 47.3866 47.3031 47.1897 47.0701 46.9494
  15  49.4016 49.2834 49.1642 49.0393 48.8842 48.7375 48.7049 48.5788 48.4438 48.3368 48.2284 48.1136 47.9948 47.8666 47.7338
      47.6438 47.4965 47.3799 47.2998 47.1870 47.0677 46.9474
  16  49.4000 49.2817 49.1625 49.0383 48.8881 48.7451 48.6931 48.5603 48.4247 48.3508 48.2383 48.1179 47.9962 47.8780 47.7594
      47.6424 47.4819 47.3762 47.2967 47.1841 47.0652 46.9453
  17  49.3993 49.2806 49.1613 49.0387 48.8992 48.7648 48.6589 48.5373 48.4310 48.3520 48.2380 48.1175 47.9966 47.8806 47.7649
      47.6460 47.4993 47.3881 47.2951 47.1809 47.0624 46.9433
  18  49.3985 49.2795 49.1603 49.0395 48.9114 48.7856 48.6701 48.5531 48.4458 48.3494 48.2341 48.1153 47.9964 47.8800 47.7637
      47.6454 47.5149 47.3997 47.2934 47.1775 47.0596 46.9413
  19  49.3977 49.2785 49.1592 49.0400 48.9225 48.8049 48.6874 48.5735 48.4596 48.3457 48.2292 48.1127 47.9961 47.8785 47.7609
      47.6433 47.5259 47.4086 47.2913 47.1740 47.0566 46.9393
1
              HEAD IN LAYER   2 AT END OF TIME STEP   1 IN STRESS PERIOD    1
  ---------------------------------------------------------------------------

           1       2       3       4       5       6       7       8       9      10      11      12      13      14      15
          16      17      18      19      20      21      22
 ...........................................................................................................................
   1  49.4538 49.3530 49.2522 49.1513 49.0382 48.9250 48.8119 48.6821 48.5522 48.4224 48.2981 48.1738 48.0495 47.9274 47.8054
      47.6834 47.5623 47.4412 47.3201 47.1992 47.0784 46.9576
   2  49.4479 49.3447 49.2415 49.1389 49.0381 48.9377 48.8248 48.6763 48.5434 48.4159 48.2921 48.1685 48.0440 47.9193 47.7995
      47.6810 47.5604 47.4395 47.3185 47.1980 47.0775 46.9570
   3  49.4419 49.3366 49.2312 49.1277 49.0368 48.9440 48.8012 48.6621 48.5333 48.4086 48.2858 48.1627 48.0386 47.9122 47.7950
      47.6787 47.5584 47.4377 47.3169 47.1967 47.0765 46.9564
   4  49.4360 49.3287 49.2210 49.1152 49.0294 48.9308 48.7731 48.6453 48.5231 48.4010 48.2779 48.1546 48.0357 47.9159 47.7960
      47.6763 47.5558 47.4356 47.3153 47.1954 47.0756 46.9558
   5  49.4314 49.3220 49.2112 49.0988 49.0094 48.9000 48.7571 48.6374 48.5183 48.3937 48.2644 48.1336 48.0279 47.9129 47.7920
      47.6685 47.5515 47.4329 47.3134 47.1940 47.0747 46.9553
   6  49.4267 49.3163 49.2040 49.0883 48.9894 48.8766 48.7465 48.6329 48.5160 48.3871 48.2525 48.1181 48.0253 47.9100 47.7883
      47.6639 47.5479 47.4298 47.3111 47.1924 47.0736 46.9548
   7  49.4221 49.3112 49.1987 49.0836 48.9744 48.8610 48.7432 48.6280 48.5107 48.3823 48.2457 48.1111 48.0237 47.9060 47.7834
      47.6626 47.5440 47.4243 47.3068 47.1896 47.0720 46.9543
   8  49.4187 49.3056 49.1898 49.0674 48.9589 48.8491 48.7380 48.6215 48.5028 48.3784 48.2496 48.1111 48.0188 47.8941 47.7671
      47.6520 47.5324 47.4086 47.2961 47.1834 47.0688 46.9502
   9  49.4152 49.3010 49.1839 49.0592 48.9453 48.8370 48.7311 48.6138 48.4949 48.3732 48.2485 48.1117 48.0128 47.8799 47.7468
      47.6501 47.5221 47.3897 47.2892 47.1811 47.0680 46.9461
  10  49.4118 49.2975 49.1817 49.0613 48.9317 48.8202 48.7150 48.6007 48.4849 48.3665 48.2388 48.1116 48.0070 47.8668 47.7291
      47.6554 47.5160 47.3750 47.3097 47.1973 47.0769 46.9563
  11  49.4094 49.2941 49.1779 49.0576 48.9175 48.7882 48.6756 48.5721 48.4679 48.3607 48.2226 48.1094 48.0023 47.8601 47.7221
      47.6545 47.5175 47.3792 47.3097 47.1979 47.0770 46.9547
  12  49.4070 49.2906 49.1734 49.0513 48.9007 48.7567 48.6750 48.5815 48.4736 48.3593 48.2162 48.1072 47.9981 47.8554 47.7174
      47.6521 47.5201 47.3857 47.3056 47.1947 47.0748 46.9531
  13  49.4046 49.2875 49.1692 49.0453 48.8867 48.7368 48.7039 48.5981 48.4787 48.3561 48.2176 48.1069 47.9951 47.8527 47.7141
      47.6495 47.5203 47.3907 47.3062 47.1925 47.0725 46.9515
  14  49.4031 49.2853 49.1665 49.0420 48.8833 48.7343 48.7098 48.5926 48.4632 48.3391 48.2206 48.1094 47.9944 47.8573 47.7194
      47.6471 47.5110 47.3860 47.3039 47.1899 47.0701 46.9494
  15  49.4016 49.2834 49.1644 49.0400 48.8837 48.7366 48.7078 48.5793 48.4431 48.3364 48.2284 48.1137 47.9951 47.8666 47.7338
      47.6453 47.4958 47.3790 47.3006 47.1871 47.0677 46.9474
  16  49.4000 49.2817 49.1626 49.0388 48.8875 48.7439 48.6968 48.5606 48.4228 48.3525 48.2391 48.1182 47.9961 47.8785 47.7606
      47.6450 47.4793 47.3746 47.2975 47.1843 47.0652 46.9453
  17  49.3993 49.2806 49.1614 49.0391 48.8990 48.7641 48.6592 48.5364 48.4301 48.3531 48.2384 48.1176 47.9965 47.8808 47.7653
      47.6469 47.4985 47.3877 47.2956 47.1810 47.0624 46.9433
  18  49.3985 49.2795 49.1604 49.0397 48.9113 48.7855 48.6698 48.5527 48.4456 48.3499 48.2343 48.1153 47.9964 47.8800 47.7639
      47.6458 47.5148 47.3997 47.2937 47.1775 47.0596 46.9413
  19  49.3977 49.2785 49.1592 49.0400 48.9225 48.8049 48.6874 48.5735 48.4596 48.3457 48.2292 48.1127 47.9961 47.8785 47.7609
      47.6433 47.5259 47.4086 47.2913 47.1740 47.0566 46.9393
1
              HEAD IN LAYER   3 AT END OF TIME STEP   1 IN STRESS PERIOD    1
  ---------------------------------------------------------------------------

           1       2       3       4       5       6       7       8       9      10      11      12      13      14      15
          16      17      18      19      20      21      22
 ...........................................................................................................................
   1  49.4539 49.3529 49.2520 49.1511 49.0373 48.9235 48.8098 48.6807 48.5516 48.4225 48.2982 48.1739 48.0496 47.9275 47.8055
      47.6835 47.5623 47.4412 47.3201 47.1992 47.0784 46.9576
   2  49.4479 49.3447 49.2415 49.1387 49.0383 48.9389 48.8279 48.6765 48.5432 48.4158 48.2922 48.1685 48.0440 47.9189 47.7993
      47.6811 47.5604 47.4395 47.3185 47.1980 47.0775 46.9570
   3  49.4420 49.3365 49.2311 49.1272 49.0376 48.9472 48.8015 48.6618 48.5331 48.4085 48.2860 48.1631 48.0386 47.9108 47.7940
      47.6788 47.5584 47.4377 47.3169 47.1967 47.0765 46.9564
   4  49.4360 49.3286 49.2208 49.1146 49.0312 48.9342 48.7703 48.6440 48.5225 48.4010 48.2785 48.1558 48.0370 47.9166 47.7964
      47.6763 47.5560 47.4357 47.3153 47.1954 47.0756 46.9558
   5  49.4314 49.3220 49.2110 49.0973 49.0103 48.9008 48.7553 48.6369 48.5183 48.3938 48.2642 48.1323 48.0280 47.9132 47.7921
      47.6675 47.5515 47.4330 47.3135 47.1941 47.0747 46.9553
   6  49.4267 49.3163 49.2040 49.0874 48.9896 48.8766 48.7452 48.6330 48.5166 48.3872 48.2519 48.1157 48.0263 47.9104 47.7885
      47.6630 47.5480 47.4301 47.3113 47.1925 47.0736 46.9548
   7  49.4221 49.3113 49.1993 49.0850 48.9746 48.8609 48.7435 48.6283 48.5113 48.3818 48.2444 48.1085 48.0256 47.9071 47.7846
      47.6635 47.5449 47.4253 47.3075 47.1900 47.0722 46.9543
   8  49.4187 49.3056 49.1898 49.0664 48.9588 48.8492 48.7385 48.6218 48.5031 48.3787 48.2500 48.1091 48.0205 47.8946 47.7669
      47.6515 47.5325 47.4084 47.2957 47.1831 47.0687 46.9517
   9  49.4152 49.3010 49.1838 49.0583 48.9450 48.8375 48.7325 48.6145 48.4953 48.3736 48.2495 48.1101 48.0145 47.8798 47.7452
      47.6511 47.5218 47.3878 47.2876 47.1798 47.0673 46.9496
  10  49.4118 49.2976 49.1821 49.0631 48.9311 48.8214 48.7179 48.6025 48.4859 48.3672 48.2394 48.1107 48.0086 47.8660 47.7257
      47.6593 47.5152 47.3703 47.3143 47.1994 47.0778 46.9561
  11  49.4094 49.2941 49.1781 49.0589 48.9172 48.7873 48.6729 48.5703 48.4671 48.3619 48.2207 48.1091 48.0039 47.8597 47.7194
      47.6581 47.5175 47.3764 47.3123 47.1988 47.0773 46.9546
  12  49.4070 49.2906 49.1736 49.0527 48.9001 48.7535 48.6739 48.5815 48.4740 48.3610 48.2139 48.1070 47.9997 47.8549 47.7147
      47.6555 47.5205 47.3838 47.3067 47.1951 47.0749 46.9530
  13  49.4046 49.2874 49.1694 49.0467 48.8850 48.7314 48.7101 48.6013 48.4811 48.3584 48.2161 48.1067 47.9963 47.8517 47.7105
      47.6527 47.5214 47.3899 47.3081 47.1929 47.0725 46.9514
  14  49.4031 49.2853 49.1668 49.0436 48.8823 48.7297 48.7153 48.5942 48.4634 48.3378 48.2197 48.1094 47.9954 47.8568 47.7164
      47.6502 47.5111 47.3845 47.3056 47.1902 47.0702 46.9494
  15  49.4016 49.2834 49.1646 49.0415 48.8829 48.7323 48.7138 48.5803 48.4416 48.3350 48.2284 48.1139 47.9955 47.8665 47.7318
      47.6483 47.4942 47.3769 47.3023 47.1875 47.0677 46.9473
  16  49.4000 49.2817 49.1627 49.0400 48.8862 48.7396 48.7045 48.5613 48.4175 48.3563 48.2408 48.1188 47.9960 47.8796 47.7629
      47.6488 47.4730 47.3713 47.2992 47.1846 47.0653 46.9453
  17  49.3993 49.2806 49.1615 49.0400 48.8987 48.7624 48.6572 48.5327 48.4278 48.3554 48.2391 48.1178 47.9963 47.8811 47.7662
      47.6488 47.4969 47.3868 47.2968 47.1812 47.0625 46.9433
  18  49.3985 49.2795 49.1604 49.0402 48.9113 48.7851 48.6691 48.5516 48.4452 48.3510 48.2346 48.1154 47.9962 47.8801 47.7642
      47.6467 47.5145 47.3995 47.2943 47.1777 47.0596 46.9413
  19  49.3977 49.2785 49.1593 49.0401 48.9229 48.8056 48.6884 48.5742 48.4601 48.3459 48.2293 48.1127 47.9961 47.8785 47.7610
      47.6434 47.5261 47.4087 47.2914 47.1740 47.0567 46.9393
1
              HEAD IN LAYER   4 AT END OF TIME STEP   1 IN STRESS PERIOD    1
  ---------------------------------------------------------------------------

           1       2       3       4       5       6       7       8       9      10      11      12      13      14      15
          16      17      18      19      20      21      22
 ...........................................................................................................................
   1  49.4539 49.3529 49.2519 49.1509 49.0365 48.9221 48.8077 48.6793 48.5509 48.4225 48.2982 48.1740 48.0497 47.9276 47.8056
      47.6835 47.5624 47.4412 47.3201 47.1992 47.0784 46.9576
   2  49.4479 49.3447 49.2414 49.1384 49.0385 48.9408 48.8346 48.6768 48.5430 48.4156 48.2922 48.1687 48.0440 47.9183 47.7989
      47.6813 47.5605 47.4395 47.3185 47.1980 47.0775 46.9570
   3  49.4420 49.3365 49.2310 49.1264 49.0388 48.9531 48.8019 48.6614 48.5328 48.4084 48.2862 48.1636 48.0385 47.9083 47.7926
      47.6791 47.5585 47.4377 47.3169 47.1967 47.0765 46.9564
   4  49.4360 49.3285 49.2206 49.1137 49.0342 48.9405 48.7656 48.6420 48.5215 48.4010 48.2795 48.1579 48.0387 47.9179 47.7973
      47.6767 47.5563 47.4358 47.3153 47.1954 47.0756 46.9558
   5  49.4314 49.3219 49.2107 49.0948 49.0117 48.9021 48.7525 48.6363 48.5183 48.3940 48.2641 48.1299 48.0279 47.9136 47.7923
      47.6661 47.5514 47.4331 47.3136 47.1941 47.0747 46.9553
   6  49.4267 49.3163 49.2039 49.0855 48.9898 48.8766 48.7429 48.6333 48.5177 48.3874 48.2510 48.1115 48.0279 47.9111 47.7889
      47.6616 47.5483 47.4305 47.3117 47.1927 47.0737 46.9547
   7  49.4221 49.3115 49.2001 49.0873 48.9750 48.8606 48.7438 48.6287 48.5123 48.3813 48.2423 48.1040 48.0287 47.9089 47.7866
      47.6651 47.5464 47.4270 47.3087 47.1907 47.0725 46.9542
   8  49.4187 49.3057 49.1897 49.0643 48.9586 48.8493 48.7391 48.6222 48.5035 48.3792 48.2512 48.1058 48.0232 47.8951 47.7667
      47.6504 47.5326 47.4081 47.2950 47.1826 47.0686 46.9532
   9  49.4153 49.3010 49.1838 49.0562 48.9445 48.8381 48.7347 48.6155 48.4959 48.3741 48.2514 48.1074 48.0172 47.8796 47.7424
      47.6525 47.5214 47.3848 47.2841 47.1771 47.0660 46.9525
  10  49.4118 49.2977 49.1828 49.0657 48.9300 48.8234 48.7228 48.6055 48.4874 48.3682 48.2404 48.1093 48.0113 47.8646 47.7197
      47.6657 47.5140 47.3618 47.3220 47.2029 47.0795 46.9560
  11  49.4094 49.2942 49.1785 49.0610 48.9169 48.7859 48.6672 48.5659 48.4648 48.3638 48.2174 48.1087 48.0066 47.8590 47.7145
      47.6639 47.5174 47.3714 47.3165 47.2001 47.0778 46.9544
  12  49.4070 49.2907 49.1740 49.0549 48.8991 48.7479 48.6710 48.5814 48.4746 48.3636 48.2101 48.1067 48.0022 47.8542 47.7098
      47.6609 47.5210 47.3804 47.3083 47.1957 47.0751 46.9529
  13  49.4046 49.2873 49.1695 49.0489 48.8825 48.7214 48.7203 48.6063 48.4851 48.3623 48.2137 48.1063 47.9983 47.8501 47.7042
      47.6578 47.5232 47.3885 47.3110 47.1934 47.0726 46.9514
  14  49.4031 49.2853 49.1671 49.0461 48.8810 48.7212 48.7241 48.5964 48.4638 48.3352 48.2183 48.1094 47.9969 47.8560 47.7109
      47.6552 47.5112 47.3818 47.3083 47.1907 47.0702 46.9494
  15  49.4016 49.2834 49.1650 49.0438 48.8816 48.7243 48.7233 48.5818 48.4394 48.3322 48.2284 48.1142 47.9962 47.8664 47.7275
      47.6530 47.4920 47.3736 47.3051 47.1880 47.0678 46.9473
  16  49.4001 49.2817 49.1630 49.0419 48.8842 48.7313 48.7172 48.5626 48.4080 48.3628 48.2434 48.1198 47.9958 47.8814 47.7668
      47.6541 47.4620 47.3660 47.3019 47.1851 47.0654 46.9453
  17  49.3993 49.2806 49.1617 49.0413 48.8982 48.7600 48.6521 48.5257 48.4244 48.3590 48.2401 48.1181 47.9960 47.8816 47.7675
      47.6517 47.4946 47.3856 47.2986 47.1815 47.0625 46.9433
  18  49.3985 49.2796 49.1606 49.0408 48.9113 48.7847 48.6680 48.5501 48.4446 48.3528 48.2350 48.1155 47.9960 47.8803 47.7646
      47.6479 47.5142 47.3994 47.2951 47.1778 47.0596 46.9413
  19  49.3977 49.2785 49.1594 49.0402 48.9233 48.8063 48.6894 48.5749 48.4605 48.3461 48.2294 48.1127 47.9961 47.8785 47.7610
      47.6435 47.5262 47.4088 47.2915 47.1741 47.0567 46.9393
1
              HEAD IN LAYER   5 AT END OF TIME STEP   1 IN STRESS PERIOD    1
  ---------------------------------------------------------------------------

           1       2       3       4       5       6       7       8       9      10      11      12      13      14      15
          16      17      18      19      20      21      22
 ...........................................................................................................................
   1  49.4539 49.3528 49.2517 49.1506 49.0356 48.9206 48.8056 48.6779 48.5502 48.4225 48.2983 48.1740 48.0498 47.9277 47.8056
      47.6835 47.5624 47.4412 47.3201 47.1992 47.0784 46.9576
   2  49.4480 49.3446 49.2413 49.1379 49.0387 48.9434 48.8463 48.6772 48.5428 48.4154 48.2923 48.1688 48.0440 47.9176 47.7985
      47.6816 47.5605 47.4395 47.3185 47.1980 47.0775 46.9570
   3  49.4420 49.3364 49.2308 49.1252 49.0402 48.9621 48.8022 48.6610 48.5324 48.4082 48.2865 48.1642 48.0381 47.9042 47.7904
      47.6796 47.5587 47.4378 47.3169 47.1967 47.0765 46.9564
   4  49.4361 49.3282 49.2204 49.1125 49.0386 48.9504 48.7581 48.6391 48.5201 48.4011 48.2811 48.1611 48.0412 47.9200 47.7988
      47.6776 47.5568 47.4360 47.3152 47.1954 47.0756 46.9558
   5  49.4314 49.3218 49.2103 49.0908 49.0139 48.9036 48.7487 48.6356 48.5183 48.3943 48.2639 48.1260 48.0276 47.9141 47.7925
      47.6639 47.5514 47.4332 47.3137 47.1942 47.0747 46.9552
   6  49.4268 49.3164 49.2039 49.0823 48.9900 48.8765 48.7393 48.6339 48.5195 48.3876 48.2499 48.1053 48.0304 47.9119 47.7893
      47.6593 47.5485 47.4310 47.3121 47.1929 47.0738 46.9547
   7  49.4221 49.3118 49.2014 49.0911 48.9756 48.8600 48.7445 48.6292 48.5140 48.3809 48.2391 48.0972 48.0333 47.9114 47.7895
      47.6677 47.5486 47.4295 47.3105 47.1917 47.0729 46.9541
   8  49.4187 49.3057 49.1897 49.0609 48.9583 48.8494 48.7400 48.6227 48.5040 48.3799 48.2533 48.1007 48.0272 47.8958 47.7664
      47.6484 47.5327 47.4077 47.2942 47.1820 47.0684 46.9547
   9  49.4153 49.3011 49.1837 49.0527 48.9440 48.8389 48.7378 48.6167 48.4965 48.3746 48.2546 48.1033 48.0212 47.8794 47.7383
      47.6542 47.5209 47.3809 47.2779 47.1728 47.0639 46.9552
  10  49.4119 49.2978 49.1837 49.0696 48.9280 48.8266 48.7308 48.6103 48.4898 48.3693 48.2423 48.1072 48.0151 47.8627 47.7103
      47.6757 47.5121 47.3485 47.3344 47.2082 47.0820 46.9558
  11  49.4094 49.2942 49.1790 49.0638 48.9164 48.7843 48.6576 48.5582 48.4605 48.3666 48.2122 48.1082 48.0105 47.8583 47.7071
      47.6722 47.5173 47.3641 47.3224 47.2017 47.0784 46.9543
  12  49.4070 49.2907 49.1743 49.0580 48.8980 48.7397 48.6659 48.5812 48.4753 48.3675 48.2043 48.1063 48.0058 47.8534 47.7024
      47.6687 47.5217 47.3752 47.3104 47.1963 47.0753 46.9529
  13  49.4046 49.2871 49.1697 49.0522 48.8789 48.7055 48.7362 48.6136 48.4909 48.3683 48.2102 48.1057 48.0011 47.8478 47.6945
      47.6652 47.5258 47.3864 47.3153 47.1940 47.0727 46.9514
  14  49.4031 49.2853 49.1675 49.0497 48.8793 48.7082 48.7365 48.5991 48.4642 48.3309 48.2164 48.1094 47.9992 47.8551 47.7025
      47.6625 47.5114 47.3778 47.3122 47.1913 47.0703 46.9494
  15  49.4016 49.2835 49.1654 49.0472 48.8801 48.7119 48.7368 48.5835 48.4368 48.3273 48.2285 48.1145 47.9972 47.8662 47.7203
      47.6598 47.4893 47.3689 47.3091 47.1885 47.0679 46.9473
  16  49.4001 49.2816 49.1632 49.0448 48.8815 48.7182 48.7372 48.5650 48.3928 48.3733 48.2472 48.1212 47.9952 47.8841 47.7729
      47.6618 47.4449 47.3582 47.3060 47.1858 47.0655 46.9453
  17  49.3993 49.2806 49.1619 49.0433 48.8975 48.7570 48.6428 48.5145 48.4197 48.3643 48.2413 48.1184 47.9955 47.8822 47.7690
      47.6558 47.4918 47.3842 47.3012 47.1819 47.0626 46.9433
  18  49.3985 49.2796 49.1607 49.0418 48.9113 48.7841 48.6666 48.5482 48.4438 48.3553 48.2354 48.1156 47.9957 47.8804 47.7650
      47.6497 47.5138 47.3992 47.2964 47.1780 47.0597 46.9413
  19  49.3977 49.2786 49.1594 49.0403 48.9236 48.8070 48.6903 48.5756 48.4610 48.3463 48.2295 48.1128 47.9960 47.8786 47.7611
      47.6437 47.5263 47.4089 47.2916 47.1742 47.0567 46.9393

 HEAD WILL BE SAVED ON UNIT   31 AT END OF TIME STEP   1, STRESS PERIOD    1
1
  VOLUMETRIC BUDGET FOR ENTIRE MODEL AT END OF TIME STEP  1 IN STRESS PERIOD   1
  ------------------------------------------------------------------------------

     CUMULATIVE VOLUMES      L**3       RATES FOR THIS TIME STEP      L**3/T
     ------------------                 ------------------------

           IN:                                      IN:
           ---                                      ---
             STORAGE =           0.0000               STORAGE =           0.0000
       CONSTANT HEAD =          97.4152         CONSTANT HEAD =          97.4152
      STREAM LEAKAGE =           1.7531        STREAM LEAKAGE =           1.7531

            TOTAL IN =          99.1683              TOTAL IN =          99.1683

          OUT:                                     OUT:
          ----                                     ----
             STORAGE =           0.0000               STORAGE =           0.0000
       CONSTANT HEAD =          92.0597         CONSTANT HEAD =          92.0597
      STREAM LEAKAGE =           7.1086        STREAM LEAKAGE =           7.1086

           TOTAL OUT =          99.1683             TOTAL OUT =          99.1683

            IN - OUT =      -1.5259E-05              IN - OUT =      -1.5259E-05

 PERCENT DISCREPANCY =           0.00     PERCENT DISCREPANCY =           0.00






          TIME SUMMARY AT END OF TIME STEP   1 IN STRESS PERIOD    1
                    SECONDS     MINUTES      HOURS       DAYS        YEARS
                    -----------------------------------------------------------
   TIME STEP LENGTH  1.0000     1.66667E-02 2.77778E-04 1.15741E-05 3.16881E-08
 STRESS PERIOD TIME  1.0000     1.66667E-02 2.77778E-04 1.15741E-05 3.16881E-08
         TOTAL TIME  1.0000     1.66667E-02 2.77778E-04 1.15741E-05 3.16881E-08
1
1
  FLUX ACROSS PARENT-CHILD INTERFACE AT TIME STEP  1 IN STRESS PERIOD    1
  ------------------------------------------------------------------------

     CUMULATIVE VOLUMES      L**3       RATES FOR THIS TIME STEP      L**3/T
     ------------------                 ------------------------

   TOTAL IN TO CHILD =          49.8531     TOTAL IN TO CHILD =          49.8531

 TOTAL OUT TO PARENT =          44.5196   TOTAL OUT TO PARENT =          44.5196


 Run end date and time (yyyy/mm/dd hh:mm:ss): 2010/05/24 13:33:17
 Elapsed run time:  0.328 Seconds

