                                  MODFLOW-LGR      
      U.S. GEOLOGICAL SURVEY MODULAR FINITE-DIFFERENCE GROUND-WATER FLOW MODEL
                            VERSION 1.2.0  05/18/2010

 LIST FILE: sfrex2_parent.out
                         UNIT   16

 OPENING sfrex2_parent.ba6
 FILE TYPE:BAS6   UNIT    1   STATUS:OLD    
 FORMAT:FORMATTED              ACCESS:SEQUENTIAL          

 OPENING sfrex2_parent.bc6
 FILE TYPE:BCF6   UNIT   11   STATUS:OLD    
 FORMAT:FORMATTED              ACCESS:SEQUENTIAL          

 OPENING sfrex2_parent.dis
 FILE TYPE:DIS   UNIT    9   STATUS:OLD    
 FORMAT:FORMATTED              ACCESS:SEQUENTIAL          

 OPENING sfrex2_parent.oc
 FILE TYPE:OC   UNIT   10   STATUS:OLD    
 FORMAT:FORMATTED              ACCESS:SEQUENTIAL          

 OPENING sfrex2_parent.pcg
 FILE TYPE:PCG   UNIT   12   STATUS:OLD    
 FORMAT:FORMATTED              ACCESS:SEQUENTIAL          

 OPENING sfrex2_parent.sfr
 FILE TYPE:SFR   UNIT   15   STATUS:OLD    
 FORMAT:FORMATTED              ACCESS:SEQUENTIAL          

 OPENING sfrex2_parent.bot
 FILE TYPE:DATA   UNIT   50   STATUS:UNKNOWN
 FORMAT:FORMATTED              ACCESS:SEQUENTIAL          
#                                                                                                                                                                                                                                                                                                           

 OPENING sfrex2_parent.hed
 FILE TYPE:DATA(BINARY)   UNIT   30   STATUS:UNKNOWN
 FORMAT:BINARY                 ACCESS:SEQUENTIAL          

 OPENING sfrex2_parent.flw
 FILE TYPE:DATA(BINARY)   UNIT   40   STATUS:UNKNOWN
 FORMAT:BINARY                 ACCESS:SEQUENTIAL          
#DATA 70 sfrex2_parent_bfh.hed                                                                                                                                                                                                                                                                              
#DATA 71 sfrex2_parent_bfh.flw                                                                                                                                                                                                                                                                              

 OPENING sfrex2_parent_sfr.out
 FILE TYPE:DATA   UNIT   19   STATUS:UNKNOWN
 FORMAT:FORMATTED              ACCESS:SEQUENTIAL          

 BAS -- BASIC PACKAGE, VERSION 7, 5/2/2005 INPUT READ FROM UNIT    1

 DISCRETIZATION INPUT DATA READ FROM UNIT    9
    3 LAYERS        15 ROWS        15 COLUMNS
    1 STRESS PERIOD(S) IN SIMULATION
 MODEL TIME UNIT IS SECONDS
 MODEL LENGTH UNIT IS METERS
  Confining bed flag for each layer:
   0   0   0

                     DELR =   102.940    

                     DELC =   68.6267    



           TOP ELEVATION OF LAYER 1
 READING ON UNIT   50 WITH FORMAT: (FREE)              

           1       2       3       4       5       6       7       8       9      10      11      12      13      14      15
 ...........................................................................................................................
   1   50.000  49.643  49.286  48.929  48.571  48.214  47.857  47.500  47.143  46.786  46.429  46.071  45.714  45.357  45.000
   2   50.000  49.643  49.286  48.929  48.571  48.214  47.857  47.500  47.143  46.786  46.429  46.071  45.714  45.357  45.000
   3   50.000  49.643  49.286  48.929  48.571  48.214  47.857  47.500  47.143  46.786  46.429  46.071  45.714  45.357  45.000
   4   50.000  49.643  49.286  48.929  48.571  48.214  47.857  47.500  47.143  46.786  46.429  46.071  45.714  45.357  45.000
   5   50.000  49.643  49.286  48.929  48.571  48.214  47.857  47.500  47.143  46.786  46.429  46.071  45.714  45.357  45.000
   6   50.000  49.643  49.286  48.929  48.571  48.214  47.857  47.500  47.143  46.786  46.429  46.071  45.714  45.357  45.000
   7   50.000  49.643  49.286  48.929  48.571  48.214  47.857  47.500  47.143  46.786  46.429  46.071  45.714  45.357  45.000
   8   50.000  49.643  49.286  48.929  48.571  48.214  47.857  47.500  47.143  46.786  46.429  46.071  45.714  45.357  45.000
   9   50.000  49.643  49.286  48.929  48.571  48.214  47.857  47.500  47.143  46.786  46.429  46.071  45.714  45.357  45.000
  10   50.000  49.643  49.286  48.929  48.571  48.214  47.857  47.500  47.143  46.786  46.429  46.071  45.714  45.357  45.000
  11   50.000  49.643  49.286  48.929  48.571  48.214  47.857  47.500  47.143  46.786  46.429  46.071  45.714  45.357  45.000
  12   50.000  49.643  49.286  48.929  48.571  48.214  47.857  47.500  47.143  46.786  46.429  46.071  45.714  45.357  45.000
  13   50.000  49.643  49.286  48.929  48.571  48.214  47.857  47.500  47.143  46.786  46.429  46.071  45.714  45.357  45.000
  14   50.000  49.643  49.286  48.929  48.571  48.214  47.857  47.500  47.143  46.786  46.429  46.071  45.714  45.357  45.000
  15   50.000  49.643  49.286  48.929  48.571  48.214  47.857  47.500  47.143  46.786  46.429  46.071  45.714  45.357  45.000



             MODEL LAYER BOTTOM EL. FOR LAYER   1
 READING ON UNIT   50 WITH FORMAT: (FREE)              

           1       2       3       4       5       6       7       8       9      10      11      12      13      14      15
 ...........................................................................................................................
   1   33.333  32.976  32.619  32.262  31.905  31.548  31.190  30.833  30.476  30.119  29.762  29.405  29.048  28.690  28.333
   2   33.333  32.976  32.619  32.262  31.905  31.548  31.190  30.833  30.476  30.119  29.762  29.405  29.048  28.690  28.333
   3   33.333  32.976  32.619  32.262  31.905  31.548  31.190  30.833  30.476  30.119  29.762  29.405  29.048  28.690  28.333
   4   33.333  32.976  32.619  32.262  31.905  31.548  31.190  30.833  30.476  30.119  29.762  29.405  29.048  28.690  28.333
   5   33.333  32.976  32.619  32.262  31.905  31.548  31.190  30.833  30.476  30.119  29.762  29.405  29.048  28.690  28.333
   6   33.333  32.976  32.619  32.262  31.905  31.548  31.190  30.833  30.476  30.119  29.762  29.405  29.048  28.690  28.333
   7   33.333  32.976  32.619  32.262  31.905  31.548  31.190  30.833  30.476  30.119  29.762  29.405  29.048  28.690  28.333
   8   33.333  32.976  32.619  32.262  31.905  31.548  31.190  30.833  30.476  30.119  29.762  29.405  29.048  28.690  28.333
   9   33.333  32.976  32.619  32.262  31.905  31.548  31.190  30.833  30.476  30.119  29.762  29.405  29.048  28.690  28.333
  10   33.333  32.976  32.619  32.262  31.905  31.548  31.190  30.833  30.476  30.119  29.762  29.405  29.048  28.690  28.333
  11   33.333  32.976  32.619  32.262  31.905  31.548  31.190  30.833  30.476  30.119  29.762  29.405  29.048  28.690  28.333
  12   33.333  32.976  32.619  32.262  31.905  31.548  31.190  30.833  30.476  30.119  29.762  29.405  29.048  28.690  28.333
  13   33.333  32.976  32.619  32.262  31.905  31.548  31.190  30.833  30.476  30.119  29.762  29.405  29.048  28.690  28.333
  14   33.333  32.976  32.619  32.262  31.905  31.548  31.190  30.833  30.476  30.119  29.762  29.405  29.048  28.690  28.333
  15   33.333  32.976  32.619  32.262  31.905  31.548  31.190  30.833  30.476  30.119  29.762  29.405  29.048  28.690  28.333



             MODEL LAYER BOTTOM EL. FOR LAYER   2
 READING ON UNIT   50 WITH FORMAT: (FREE)              

           1       2       3       4       5       6       7       8       9      10      11      12      13      14      15
 ...........................................................................................................................
   1   16.667  16.310  15.952  15.595  15.238  14.881  14.524  14.167  13.810  13.452  13.095  12.738  12.381  12.024  11.667
   2   16.667  16.310  15.952  15.595  15.238  14.881  14.524  14.167  13.810  13.452  13.095  12.738  12.381  12.024  11.667
   3   16.667  16.310  15.952  15.595  15.238  14.881  14.524  14.167  13.810  13.452  13.095  12.738  12.381  12.024  11.667
   4   16.667  16.310  15.952  15.595  15.238  14.881  14.524  14.167  13.810  13.452  13.095  12.738  12.381  12.024  11.667
   5   16.667  16.310  15.952  15.595  15.238  14.881  14.524  14.167  13.810  13.452  13.095  12.738  12.381  12.024  11.667
   6   16.667  16.310  15.952  15.595  15.238  14.881  14.524  14.167  13.810  13.452  13.095  12.738  12.381  12.024  11.667
   7   16.667  16.310  15.952  15.595  15.238  14.881  14.524  14.167  13.810  13.452  13.095  12.738  12.381  12.024  11.667
   8   16.667  16.310  15.952  15.595  15.238  14.881  14.524  14.167  13.810  13.452  13.095  12.738  12.381  12.024  11.667
   9   16.667  16.310  15.952  15.595  15.238  14.881  14.524  14.167  13.810  13.452  13.095  12.738  12.381  12.024  11.667
  10   16.667  16.310  15.952  15.595  15.238  14.881  14.524  14.167  13.810  13.452  13.095  12.738  12.381  12.024  11.667
  11   16.667  16.310  15.952  15.595  15.238  14.881  14.524  14.167  13.810  13.452  13.095  12.738  12.381  12.024  11.667
  12   16.667  16.310  15.952  15.595  15.238  14.881  14.524  14.167  13.810  13.452  13.095  12.738  12.381  12.024  11.667
  13   16.667  16.310  15.952  15.595  15.238  14.881  14.524  14.167  13.810  13.452  13.095  12.738  12.381  12.024  11.667
  14   16.667  16.310  15.952  15.595  15.238  14.881  14.524  14.167  13.810  13.452  13.095  12.738  12.381  12.024  11.667
  15   16.667  16.310  15.952  15.595  15.238  14.881  14.524  14.167  13.810  13.452  13.095  12.738  12.381  12.024  11.667



             MODEL LAYER BOTTOM EL. FOR LAYER   3
 READING ON UNIT   50 WITH FORMAT: (FREE)              

           1       2       3       4       5       6       7       8       9      10      11      12      13      14      15
 ...........................................................................................................................
   1    0.000  -0.357  -0.714  -1.071  -1.429  -1.786  -2.143  -2.500  -2.857  -3.214  -3.571  -3.929  -4.286  -4.643  -5.000
   2    0.000  -0.357  -0.714  -1.071  -1.429  -1.786  -2.143  -2.500  -2.857  -3.214  -3.571  -3.929  -4.286  -4.643  -5.000
   3    0.000  -0.357  -0.714  -1.071  -1.429  -1.786  -2.143  -2.500  -2.857  -3.214  -3.571  -3.929  -4.286  -4.643  -5.000
   4    0.000  -0.357  -0.714  -1.071  -1.429  -1.786  -2.143  -2.500  -2.857  -3.214  -3.571  -3.929  -4.286  -4.643  -5.000
   5    0.000  -0.357  -0.714  -1.071  -1.429  -1.786  -2.143  -2.500  -2.857  -3.214  -3.571  -3.929  -4.286  -4.643  -5.000
   6    0.000  -0.357  -0.714  -1.071  -1.429  -1.786  -2.143  -2.500  -2.857  -3.214  -3.571  -3.929  -4.286  -4.643  -5.000
   7    0.000  -0.357  -0.714  -1.071  -1.429  -1.786  -2.143  -2.500  -2.857  -3.214  -3.571  -3.929  -4.286  -4.643  -5.000
   8    0.000  -0.357  -0.714  -1.071  -1.429  -1.786  -2.143  -2.500  -2.857  -3.214  -3.571  -3.929  -4.286  -4.643  -5.000
   9    0.000  -0.357  -0.714  -1.071  -1.429  -1.786  -2.143  -2.500  -2.857  -3.214  -3.571  -3.929  -4.286  -4.643  -5.000
  10    0.000  -0.357  -0.714  -1.071  -1.429  -1.786  -2.143  -2.500  -2.857  -3.214  -3.571  -3.929  -4.286  -4.643  -5.000
  11    0.000  -0.357  -0.714  -1.071  -1.429  -1.786  -2.143  -2.500  -2.857  -3.214  -3.571  -3.929  -4.286  -4.643  -5.000
  12    0.000  -0.357  -0.714  -1.071  -1.429  -1.786  -2.143  -2.500  -2.857  -3.214  -3.571  -3.929  -4.286  -4.643  -5.000
  13    0.000  -0.357  -0.714  -1.071  -1.429  -1.786  -2.143  -2.500  -2.857  -3.214  -3.571  -3.929  -4.286  -4.643  -5.000
  14    0.000  -0.357  -0.714  -1.071  -1.429  -1.786  -2.143  -2.500  -2.857  -3.214  -3.571  -3.929  -4.286  -4.643  -5.000
  15    0.000  -0.357  -0.714  -1.071  -1.429  -1.786  -2.143  -2.500  -2.857  -3.214  -3.571  -3.929  -4.286  -4.643  -5.000


 STRESS PERIOD     LENGTH       TIME STEPS     MULTIPLIER FOR DELT    SS FLAG
 ----------------------------------------------------------------------------
        1         1.000000          1                    1.000         SS

 STEADY-STATE SIMULATION



 
 #Meandering River - 3 layers, natural gradient - 02/15/2006                     
 THE FREE FORMAT OPTION HAS BEEN SELECTED
 CALCULATE FLOW BETWEEN ADJACENT CONSTANT-HEAD CELLS

 OPENING FILE ON UNIT   99:
 sfrex2_parent.ib                                                                                                                                                                                        



                     BOUNDARY ARRAY FOR LAYER   1
 READING ON UNIT   99 WITH FORMAT: (FREE)              

         1    2    3    4    5    6    7    8    9   10   11   12   13   14   15
 ...............................................................................
   1    -1    1    1    1    1    1    1    1    1    1    1    1    1    1   -1
   2    -1    1    1    1    1    1    1    1    1    1    1    1    1    1   -1
   3    -1    1    1    1    1    1    1    1    1    1    1    1    1    1   -1
   4    -1    1    1    1    1    1    1    1    1    1    1    1    1    1   -1
   5    -1    1    1    1    1    1    1    1    1    1    1    1    1    1   -1
   6    -1    1    1    1    1    1    1    1    1    1    1    1    1    1   -1
   7    -1    1    1    1    1    1    1    1    1    1    1    1    1    1   -1
   8    -1    1    1    1    1    1    1    1    1    1    1    1    1    1   -1
   9    -1    1    1    1    1    1    1    1    1    1    1    1    1    1   -1
  10    -1    1    1    1    1    1    1    1    1    1    1    1    1    1   -1
  11    -1    1    1    1    1    1    1    1    1    1    1    1    1    1   -1
  12    -1    1    1    1    1    1    1    1    1    1    1    1    1    1   -1
  13    -1    1    1    1    1    1    1    1    1    1    1    1    1    1   -1
  14    -1    1    1    1    1    1    1    1    1    1    1    1    1    1   -1
  15    -1    1    1    1    1    1    1    1    1    1    1    1    1    1   -1

 OPENING FILE ON UNIT   99:
 sfrex2_parent.ib                                                                                                                                                                                        



                     BOUNDARY ARRAY FOR LAYER   2
 READING ON UNIT   99 WITH FORMAT: (FREE)              

         1    2    3    4    5    6    7    8    9   10   11   12   13   14   15
 ...............................................................................
   1    -1    1    1    1    1    1    1    1    1    1    1    1    1    1   -1
   2    -1    1    1    1    1    1    1    1    1    1    1    1    1    1   -1
   3    -1    1    1    1    1    1    1    1    1    1    1    1    1    1   -1
   4    -1    1    1    1    1    1    1    1    1    1    1    1    1    1   -1
   5    -1    1    1    1    1    1    1    1    1    1    1    1    1    1   -1
   6    -1    1    1    1    1    1    1    1    1    1    1    1    1    1   -1
   7    -1    1    1    1    1    1    1    1    1    1    1    1    1    1   -1
   8    -1    1    1    1    1    1    1    1    1    1    1    1    1    1   -1
   9    -1    1    1    1    1    1    1    1    1    1    1    1    1    1   -1
  10    -1    1    1    1    1    1    1    1    1    1    1    1    1    1   -1
  11    -1    1    1    1    1    1    1    1    1    1    1    1    1    1   -1
  12    -1    1    1    1    1    1    1    1    1    1    1    1    1    1   -1
  13    -1    1    1    1    1    1    1    1    1    1    1    1    1    1   -1
  14    -1    1    1    1    1    1    1    1    1    1    1    1    1    1   -1
  15    -1    1    1    1    1    1    1    1    1    1    1    1    1    1   -1

 OPENING FILE ON UNIT   99:
 sfrex2_parent.ib                                                                                                                                                                                        



                     BOUNDARY ARRAY FOR LAYER   3
 READING ON UNIT   99 WITH FORMAT: (FREE)              

         1    2    3    4    5    6    7    8    9   10   11   12   13   14   15
 ...............................................................................
   1    -1    1    1    1    1    1    1    1    1    1    1    1    1    1   -1
   2    -1    1    1    1    1    1    1    1    1    1    1    1    1    1   -1
   3    -1    1    1    1    1    1    1    1    1    1    1    1    1    1   -1
   4    -1    1    1    1    1    1    1    1    1    1    1    1    1    1   -1
   5    -1    1    1    1    1    1    1    1    1    1    1    1    1    1   -1
   6    -1    1    1    1    1    1    1    1    1    1    1    1    1    1   -1
   7    -1    1    1    1    1    1    1    1    1    1    1    1    1    1   -1
   8    -1    1    1    1    1    1    1    1    1    1    1    1    1    1   -1
   9    -1    1    1    1    1    1    1    1    1    1    1    1    1    1   -1
  10    -1    1    1    1    1    1    1    1    1    1    1    1    1    1   -1
  11    -1    1    1    1    1    1    1    1    1    1    1    1    1    1   -1
  12    -1    1    1    1    1    1    1    1    1    1    1    1    1    1   -1
  13    -1    1    1    1    1    1    1    1    1    1    1    1    1    1   -1
  14    -1    1    1    1    1    1    1    1    1    1    1    1    1    1   -1
  15    -1    1    1    1    1    1    1    1    1    1    1    1    1    1   -1

 AQUIFER HEAD WILL BE SET TO  -9.9900     AT ALL NO-FLOW NODES (IBOUND=0).

 OPENING FILE ON UNIT   99:
 sfrex2_parent.shd                                                                                                                                                                                       



                       INITIAL HEAD FOR LAYER   1
 READING ON UNIT   99 WITH FORMAT: (FREE)              

 OPENING FILE ON UNIT   99:
 sfrex2_parent.shd                                                                                                                                                                                       



                       INITIAL HEAD FOR LAYER   2
 READING ON UNIT   99 WITH FORMAT: (FREE)              

 OPENING FILE ON UNIT   99:
 sfrex2_parent.shd                                                                                                                                                                                       



                       INITIAL HEAD FOR LAYER   3
 READING ON UNIT   99 WITH FORMAT: (FREE)              

 OUTPUT CONTROL IS SPECIFIED ONLY AT TIME STEPS FOR WHICH OUTPUT IS DESIRED
 HEAD PRINT FORMAT CODE IS   6    DRAWDOWN PRINT FORMAT CODE IS   0
 HEADS WILL BE SAVED ON UNIT   30    DRAWDOWNS WILL BE SAVED ON UNIT    0

 LGR -- LOCAL GRID REFINEMENT, VERSION 1.2.0 05/18/2010
        INPUT READ FOR MODEL  1 DEFINED BY NAME FILE sfrex2_parent.nam

 LOCAL GRID REFINEMENT IS ACTIVE FOR PARENT ONLY

 BCF -- BLOCK-CENTERED FLOW PACKAGE, VERSION 7, 5/2/2005
         INPUT READ FROM UNIT 11
 STEADY-STATE SIMULATION
 CELL-BY-CELL FLOWS WILL BE SAVED ON UNIT 40
 HEAD AT CELLS THAT CONVERT TO DRY=  -888.00    
 WETTING CAPABILITY IS NOT ACTIVE
      LAYER  LAYER-TYPE CODE     INTERBLOCK T
      --------------------------------------------
         1            1          0 -- HARMONIC    
         2            3          0 -- HARMONIC    
         3            3          0 -- HARMONIC    

 COLUMN TO ROW ANISOTROPY =   1.00000    

    HYD. COND. ALONG ROWS =   1.00000     FOR LAYER   1

 VERT HYD COND /THICKNESS =  6.000000E-02 FOR LAYER   1

    HYD. COND. ALONG ROWS =   1.00000     FOR LAYER   2

 VERT HYD COND /THICKNESS =  6.000000E-02 FOR LAYER   2

    HYD. COND. ALONG ROWS =   1.00000     FOR LAYER   3

 SFR7 -- STREAMFLOW ROUTING PACKAGE, VERSION 7.1.02, 06/29/2009
         INPUT READ FROM UNIT  15
 # MEANDERING STREAM--> ROUTING FROM PARENT TO CHILD THEN CHILD TO PARENT
 # STEFFEN MEHL: 07/10/2009
 AUXILIARY STREAM FLOW ROUTING VARIABLE: LGRGRID         
 AUXILIARY STREAM FLOW ROUTING VARIABLE: LGRSEG          


 NUMBER OF STREAM REACHES IS   43

 NUMBER OF STREAM SEGMENTS IS    3

 NUMBER OF STREAM PARAMETERS IS    0

 NUMBER OF STREAM SEGMENTS DEFINED USING PARAMETERS IS    0

 MAXIMUM ERROR FOR STREAM LEAKAGE RATES IS  1.00E-04

 CONSTANT FOR MANNINGS EQUATION IS  1.0000E+00



 STREAM OUTPUT WILL BE WRITTEN TO FILE ON UNIT  19


   STREAM NETWORK DESCRIPTION: 

   LAYER    ROW    COL   SEGMENT   REACH     LENGTH
                          NUMBER   NUMBER    IN CELL
   --------------------------------------------------
      1      1      2       1        1    6.5613E+01
      1      2      2       1        2    7.2489E+01
      1      3      2       1        3    8.1425E+01
      1      3      3       1        4    3.5850E+01
      1      4      3       1        5    7.5027E+01
      1      5      3       1        6    9.0888E+01
      1      5      4       1        7    7.7566E+01
      1      6      4       1        8    7.4860E+01
      1      7      4       2        1    5.6604E+01
      1      7      3       2        2    6.1072E+01
      1      8      3       2        3    7.2018E+01
      1      9      3       2        4    8.4038E+01
      1      9      4       2        5    6.9725E+01
      1      8      4       2        6    1.0750E+02
      1      8      5       2        7    1.1834E+02
      1      9      5       2        8    1.0632E+02
      1      9      4       2        9    5.8971E+01
      1     10      4       2       10    7.8229E+01
      1     11      4       2       11    1.1961E+02
      1     11      5       2       12    7.6940E+01
      1     10      5       2       13    7.7807E+01
      1      9      5       2       14    2.6219E+01
      1      9      6       2       15    4.5779E+01
      1      8      6       2       16    7.0136E+01
      1      7      6       2       17    1.0178E+02
      1      7      7       2       18    9.4653E+01
      1      8      7       2       19    7.4320E+01
      1      9      7       2       20    7.9365E+01
      1     10      7       2       21    7.1140E+01
      1     11      7       2       22    1.0617E+02
      1     11      8       2       23    3.9795E+01
      1     10      8       2       24    8.1773E+01
      1      9      8       2       25    1.2843E+02
      1      9      9       3        1    1.2045E+02
      1      9     10       3        2    1.1231E+02
      1      9     11       3        3    1.0900E+02
      1      9     12       3        4    9.1235E+01
      1      8     12       3        5    6.7486E+01
      1      8     13       3        6    2.4603E+01
      1      7     13       3        7    9.7548E+01
      1      7     14       3        8    1.0498E+02
      1      7     15       3        9    8.9454E+00
      1      6     15       3       10    9.2638E+01

 *** WARNING *** STREAM SEGMENT    3 REACH NO.    9 IS CONNECTED TO A CONSTANT HEAD CELL.
 IBOUND ARRAY VALUE IS   -1 AT LAYER    1; ROW    7; COLUMN   15.
 NO STREAM LEAKAGE WILL BE ALLOWED-- SUGGEST REMOVING STREAM REACH FROM CELL OR CHANGE CELL TO VARIABLE HEAD.


 *** WARNING *** STREAM SEGMENT    3 REACH NO.   10 IS CONNECTED TO A CONSTANT HEAD CELL.
 IBOUND ARRAY VALUE IS   -1 AT LAYER    1; ROW    6; COLUMN   15.
 NO STREAM LEAKAGE WILL BE ALLOWED-- SUGGEST REMOVING STREAM REACH FROM CELL OR CHANGE CELL TO VARIABLE HEAD.





 PCG -- CONJUGATE-GRADIENT SOLUTION PACKAGE, VERSION 7, 5/2/2005
 MAXIMUM OF   2525 CALLS OF SOLUTION ROUTINE
 MAXIMUM OF      1 INTERNAL ITERATIONS PER CALL TO SOLUTION ROUTINE
 MATRIX PRECONDITIONING TYPE :    1



                                    SOLUTION BY THE CONJUGATE-GRADIENT METHOD
                                   -------------------------------------------
                    MAXIMUM NUMBER OF CALLS TO PCG ROUTINE =     2525
                        MAXIMUM ITERATIONS PER CALL TO PCG =        1
                               MATRIX PRECONDITIONING TYPE =        1
        RELAXATION FACTOR (ONLY USED WITH PRECOND. TYPE 1) =    0.10000E+01
 PARAMETER OF POLYNOMIAL PRECOND. = 2 (2) OR IS CALCULATED :        0
                         HEAD CHANGE CRITERION FOR CLOSURE =    0.10000E-07
                     RESIDUAL CHANGE CRITERION FOR CLOSURE =    0.10000E-07
            PCG HEAD AND RESIDUAL CHANGE PRINTOUT INTERVAL =      999
     PRINTING FROM SOLVER IS LIMITED(1) OR SUPPRESSED (>1) =        1
                            STEADY-STATE DAMPING PARAMETER =    0.50000E+00
                               TRANSIENT DAMPING PARAMETER =    0.50000E+00
1
                            STRESS PERIOD NO.    1, LENGTH =   1.000000    
                            -----------------------------------------------

                              NUMBER OF TIME STEPS =     1

                               MULTIPLIER FOR DELT =     1.000

                            INITIAL TIME STEP SIZE =   1.000000    



 CLASSIFICATION & COUNT OF STREAM SEGMENTS BASED ON SOURCE OF INFLOW:

                HEADWATER     DIVERSION     RECEIVES TRIBUTARY FLOW
                ---------     ---------     -----------------------
                     1              0               2




 
 SOLVING FOR HEAD 


   100 CALLS TO PCG ROUTINE FOR TIME STEP   1 IN STRESS PERIOD    1
   100 TOTAL ITERATIONS


    82 CALLS TO PCG ROUTINE FOR TIME STEP   1 IN STRESS PERIOD    1
    82 TOTAL ITERATIONS


    73 CALLS TO PCG ROUTINE FOR TIME STEP   1 IN STRESS PERIOD    1
    73 TOTAL ITERATIONS


    79 CALLS TO PCG ROUTINE FOR TIME STEP   1 IN STRESS PERIOD    1
    79 TOTAL ITERATIONS


    65 CALLS TO PCG ROUTINE FOR TIME STEP   1 IN STRESS PERIOD    1
    65 TOTAL ITERATIONS


    69 CALLS TO PCG ROUTINE FOR TIME STEP   1 IN STRESS PERIOD    1
    69 TOTAL ITERATIONS


    68 CALLS TO PCG ROUTINE FOR TIME STEP   1 IN STRESS PERIOD    1
    68 TOTAL ITERATIONS

 OUTPUT CONTROL FOR STRESS PERIOD    1   TIME STEP   1
    PRINT HEAD FOR ALL LAYERS
    SAVE HEAD FOR ALL LAYERS
    PRINT BUDGET
    SAVE BUDGET
 UBUDSV SAVING "   CONSTANT HEAD" ON UNIT 40 AT TIME STEP  1, STRESS PERIOD    1
 UBUDSV SAVING "FLOW RIGHT FACE " ON UNIT 40 AT TIME STEP  1, STRESS PERIOD    1
 UBUDSV SAVING "FLOW FRONT FACE " ON UNIT 40 AT TIME STEP  1, STRESS PERIOD    1
 UBUDSV SAVING "FLOW LOWER FACE " ON UNIT 40 AT TIME STEP  1, STRESS PERIOD    1
1
              HEAD IN LAYER   1 AT END OF TIME STEP   1 IN STRESS PERIOD    1
  ---------------------------------------------------------------------------

           1       2       3       4       5       6       7       8       9      10      11      12      13      14      15
 ...........................................................................................................................
   1  49.7500 49.5871 49.2071 48.8309 48.4533 48.0773 47.7039 47.3331 46.9642 46.5962 46.2284 45.8601 45.4910 45.1209 44.7500
   2  49.7500 49.5779 49.2093 48.8316 48.4526 48.0760 47.7028 47.3323 46.9637 46.5960 46.2285 45.8605 45.4915 45.1212 44.7500
   3  49.7500 49.5571 49.2220 48.8331 48.4506 48.0732 47.7003 47.3306 46.9627 46.5958 46.2289 45.8613 45.4924 45.1218 44.7500
   4  49.7500 49.5043 49.2222 48.8332 48.4465 48.0684 47.6964 47.3279 46.9614 46.5956 46.2295 45.8626 45.4940 45.1230 44.7500
   5  49.7500 49.4768 49.1995 48.8379 48.4385 48.0608 47.6908 47.3244 46.9596 46.5954 46.2306 45.8646 45.4966 45.1250 44.7500
   6  49.7500 49.4538 49.1512 48.8117 48.4224 48.0495 47.6835 47.3202 46.9577 46.5954 46.2321 45.8675 45.5008 45.1286 44.7500
   7  49.7500 49.4360 -9.9900 -9.9900 -9.9900 -9.9900 -9.9900 -9.9900 46.9558 46.5958 46.2342 45.8712 45.5085 45.1363 44.7500
   8  49.7500 49.4220 -9.9900 -9.9900 -9.9900 -9.9900 -9.9900 -9.9900 46.9544 46.5969 46.2371 45.8758 45.5060 45.1299 44.7500
   9  49.7500 49.4117 -9.9900 -9.9900 -9.9900 -9.9900 -9.9900 -9.9900 46.9563 46.5997 46.2419 45.8784 45.5013 45.1265 44.7500
  10  49.7500 49.4044 -9.9900 -9.9900 -9.9900 -9.9900 -9.9900 -9.9900 46.9515 46.5925 46.2323 45.8677 45.4966 45.1239 44.7500
  11  49.7500 49.3998 -9.9900 -9.9900 -9.9900 -9.9900 -9.9900 -9.9900 46.9454 46.5865 46.2257 45.8612 45.4926 45.1219 44.7500
  12  49.7500 49.3976 49.0401 48.6874 48.3459 47.9963 47.6433 47.2915 46.9395 46.5815 46.2207 45.8567 45.4895 45.1203 44.7500
  13  49.7500 49.3971 49.0431 48.6922 48.3445 47.9943 47.6423 47.2896 46.9355 46.5777 46.2171 45.8535 45.4872 45.1191 44.7500
  14  49.7500 49.3972 49.0444 48.6933 48.3438 47.9931 47.6411 47.2880 46.9331 46.5753 46.2147 45.8514 45.4858 45.1184 44.7500
  15  49.7500 49.3973 49.0449 48.6937 48.3435 47.9926 47.6405 47.2871 46.9319 46.5741 46.2136 45.8505 45.4851 45.1180 44.7500
1
              HEAD IN LAYER   2 AT END OF TIME STEP   1 IN STRESS PERIOD    1
  ---------------------------------------------------------------------------

           1       2       3       4       5       6       7       8       9      10      11      12      13      14      15
 ...........................................................................................................................
   1  49.7500 49.5761 49.2069 48.8309 48.4533 48.0773 47.7039 47.3331 46.9641 46.5962 46.2284 45.8601 45.4910 45.1209 44.7500
   2  49.7500 49.5676 49.2089 48.8316 48.4526 48.0760 47.7028 47.3323 46.9637 46.5960 46.2285 45.8605 45.4915 45.1212 44.7500
   3  49.7500 49.5479 49.2178 48.8330 48.4506 48.0732 47.7003 47.3305 46.9627 46.5958 46.2289 45.8613 45.4924 45.1218 44.7500
   4  49.7500 49.5038 49.2152 48.8328 48.4464 48.0684 47.6964 47.3279 46.9614 46.5956 46.2295 45.8626 45.4940 45.1230 44.7500
   5  49.7500 49.4767 49.1932 48.8330 48.4384 48.0608 47.6908 47.3244 46.9596 46.5954 46.2306 45.8646 45.4966 45.1250 44.7500
   6  49.7500 49.4539 49.1505 48.8055 48.4225 48.0498 47.6836 47.3202 46.9577 46.5954 46.2321 45.8674 45.5008 45.1286 44.7500
   7  49.7500 49.4361 49.1126 48.7591 48.4016 48.0410 47.6776 47.3152 46.9558 46.5958 46.2342 45.8712 45.5071 45.1345 44.7500
   8  49.7500 49.4220 49.0908 48.7443 48.3814 48.0330 47.6675 47.3102 46.9542 46.5968 46.2370 45.8751 45.5054 45.1298 44.7500
   9  49.7500 49.4117 49.0694 48.7297 48.3693 48.0151 47.6742 47.3323 46.9557 46.5987 46.2404 45.8766 45.5013 45.1265 44.7500
  10  49.7500 49.4044 49.0521 48.7334 48.3671 48.0014 47.6639 47.3140 46.9515 46.5924 46.2322 45.8677 45.4966 45.1239 44.7500
  11  49.7500 49.3998 49.0445 48.7336 48.3714 47.9953 47.6605 47.3052 46.9453 46.5865 46.2257 45.8612 45.4926 45.1219 44.7500
  12  49.7500 49.3976 49.0403 48.6901 48.3463 47.9962 47.6436 47.2917 46.9395 46.5815 46.2207 45.8567 45.4895 45.1203 44.7500
  13  49.7500 49.3971 49.0431 48.6923 48.3446 47.9943 47.6423 47.2896 46.9355 46.5777 46.2171 45.8535 45.4872 45.1191 44.7500
  14  49.7500 49.3972 49.0444 48.6933 48.3438 47.9931 47.6411 47.2880 46.9331 46.5753 46.2147 45.8514 45.4858 45.1184 44.7500
  15  49.7500 49.3973 49.0449 48.6937 48.3435 47.9926 47.6405 47.2871 46.9319 46.5741 46.2136 45.8505 45.4851 45.1180 44.7500
1
              HEAD IN LAYER   3 AT END OF TIME STEP   1 IN STRESS PERIOD    1
  ---------------------------------------------------------------------------

           1       2       3       4       5       6       7       8       9      10      11      12      13      14      15
 ...........................................................................................................................
   1  49.7500 49.5708 49.2067 48.8309 48.4533 48.0773 47.7039 47.3331 46.9641 46.5962 46.2284 45.8601 45.4910 45.1209 44.7500
   2  49.7500 49.5626 49.2086 48.8316 48.4526 48.0760 47.7028 47.3323 46.9637 46.5960 46.2285 45.8605 45.4915 45.1212 44.7500
   3  49.7500 49.5435 49.2157 48.8329 48.4506 48.0732 47.7003 47.3305 46.9627 46.5958 46.2289 45.8613 45.4924 45.1218 44.7500
   4  49.7500 49.5034 49.2119 48.8325 48.4464 48.0684 47.6964 47.3279 46.9614 46.5956 46.2295 45.8626 45.4940 45.1230 44.7500
   5  49.7500 49.4766 49.1902 48.8307 48.4384 48.0608 47.6908 47.3244 46.9596 46.5954 46.2306 45.8646 45.4966 45.1250 44.7500
   6  49.7500 49.4539 49.1497 48.8036 48.4225 48.0501 47.6837 47.3202 46.9577 46.5954 46.2321 45.8674 45.5007 45.1285 44.7500
   7  49.7500 49.4360 49.1127 48.7605 48.4016 48.0410 47.6775 47.3154 46.9558 46.5958 46.2342 45.8711 45.5065 45.1337 44.7500
   8  49.7500 49.4221 49.0905 48.7441 48.3821 48.0322 47.6685 47.3115 46.9544 46.5968 46.2369 45.8748 45.5051 45.1297 44.7500
   9  49.7500 49.4118 49.0698 48.7301 48.3700 48.0156 47.6733 47.3295 46.9558 46.5982 46.2396 45.8758 45.5012 45.1265 44.7500
  10  49.7500 49.4045 49.0534 48.7320 48.3674 48.0025 47.6639 47.3141 46.9514 46.5924 46.2321 45.8676 45.4966 45.1239 44.7500
  11  49.7500 49.3998 49.0457 48.7303 48.3696 47.9965 47.6594 47.3048 46.9454 46.5865 46.2257 45.8612 45.4926 45.1219 44.7500
  12  49.7500 49.3976 49.0409 48.6924 48.3473 47.9961 47.6444 47.2923 46.9394 46.5815 46.2207 45.8567 45.4895 45.1203 44.7500
  13  49.7500 49.3971 49.0431 48.6924 48.3446 47.9943 47.6423 47.2896 46.9355 46.5777 46.2171 45.8535 45.4872 45.1191 44.7500
  14  49.7500 49.3972 49.0444 48.6933 48.3438 47.9931 47.6411 47.2880 46.9331 46.5753 46.2147 45.8514 45.4858 45.1184 44.7500
  15  49.7500 49.3973 49.0449 48.6937 48.3435 47.9926 47.6405 47.2871 46.9319 46.5741 46.2136 45.8505 45.4851 45.1180 44.7500

 HEAD WILL BE SAVED ON UNIT   30 AT END OF TIME STEP   1, STRESS PERIOD    1
1
  VOLUMETRIC BUDGET FOR ENTIRE MODEL AT END OF TIME STEP  1 IN STRESS PERIOD   1
  ------------------------------------------------------------------------------

     CUMULATIVE VOLUMES      L**3       RATES FOR THIS TIME STEP      L**3/T
     ------------------                 ------------------------

           IN:                                      IN:
           ---                                      ---
             STORAGE =           0.0000               STORAGE =           0.0000
       CONSTANT HEAD =         147.8465         CONSTANT HEAD =         147.8465
      STREAM LEAKAGE =          43.3488        STREAM LEAKAGE =          43.3488
    PARENT FLUX B.C. =          44.5196      PARENT FLUX B.C. =          44.5196

            TOTAL IN =         235.7148              TOTAL IN =         235.7148

          OUT:                                     OUT:
          ----                                     ----
             STORAGE =           0.0000               STORAGE =           0.0000
       CONSTANT HEAD =         185.8731         CONSTANT HEAD =         185.8731
      STREAM LEAKAGE =           0.0000        STREAM LEAKAGE =           0.0000
    PARENT FLUX B.C. =          49.8531      PARENT FLUX B.C. =          49.8531

           TOTAL OUT =         235.7263             TOTAL OUT =         235.7263

            IN - OUT =      -1.1475E-02              IN - OUT =      -1.1475E-02

 PERCENT DISCREPANCY =           0.00     PERCENT DISCREPANCY =           0.00






          TIME SUMMARY AT END OF TIME STEP   1 IN STRESS PERIOD    1
                    SECONDS     MINUTES      HOURS       DAYS        YEARS
                    -----------------------------------------------------------
   TIME STEP LENGTH  1.0000     1.66667E-02 2.77778E-04 1.15741E-05 3.16881E-08
 STRESS PERIOD TIME  1.0000     1.66667E-02 2.77778E-04 1.15741E-05 3.16881E-08
         TOTAL TIME  1.0000     1.66667E-02 2.77778E-04 1.15741E-05 3.16881E-08
1
