                                  MODFLOW-LGR      
      U.S. GEOLOGICAL SURVEY MODULAR FINITE-DIFFERENCE GROUND-WATER FLOW MODEL
                            VERSION 1.2.0  05/18/2010

 LIST FILE: child.lst
                         UNIT   26

 OPENING CHILD.ba6
 FILE TYPE:BAS6   UNIT   25   STATUS:OLD    
 FORMAT:FORMATTED              ACCESS:SEQUENTIAL          

 OPENING CHILDh.lpf
 FILE TYPE:LPF   UNIT   27   STATUS:OLD    
 FORMAT:FORMATTED              ACCESS:SEQUENTIAL          

 OPENING CHILD.WEL
 FILE TYPE:WEL   UNIT   22   STATUS:OLD    
 FORMAT:FORMATTED              ACCESS:SEQUENTIAL          

 OPENING CHILD.gmg
 FILE TYPE:GMG   UNIT   23   STATUS:OLD    
 FORMAT:FORMATTED              ACCESS:SEQUENTIAL          
#PCG 23 child.pcg                                                                                                                                                                                                                                                                                           
#DE4 23 CHILD.DE4                                                                                                                                                                                                                                                                                           

 OPENING CHILD.OC
 FILE TYPE:OC   UNIT   24   STATUS:OLD    
 FORMAT:FORMATTED              ACCESS:SEQUENTIAL          

 OPENING cbhead
 FILE TYPE:DATA   UNIT   80   STATUS:UNKNOWN
 FORMAT:FORMATTED              ACCESS:SEQUENTIAL          

 OPENING cbflux_chk
 FILE TYPE:DATA   UNIT   81   STATUS:UNKNOWN
 FORMAT:FORMATTED              ACCESS:SEQUENTIAL          

 OPENING headc
 FILE TYPE:DATA(BINARY)   UNIT   86   STATUS:UNKNOWN
 FORMAT:BINARY                 ACCESS:SEQUENTIAL          

 OPENING flowc
 FILE TYPE:DATA(BINARY)   UNIT   88   STATUS:UNKNOWN
 FORMAT:BINARY                 ACCESS:SEQUENTIAL          

 OPENING CHILD.dis
 FILE TYPE:DIS   UNIT   20   STATUS:OLD    
 FORMAT:FORMATTED              ACCESS:SEQUENTIAL          

 OPENING CHILD.zon
 FILE TYPE:ZONE   UNIT   28   STATUS:OLD    
 FORMAT:FORMATTED              ACCESS:SEQUENTIAL          

 BAS -- BASIC PACKAGE, VERSION 7, 5/2/2005 INPUT READ FROM UNIT   25

 DISCRETIZATION INPUT DATA READ FROM UNIT   20
    1 LAYERS       100 ROWS       154 COLUMNS
    1 STRESS PERIOD(S) IN SIMULATION
 MODEL TIME UNIT IS UNDEFINED
 MODEL LENGTH UNIT IS UNDEFINED
  Confining bed flag for each layer:
   0

                     DELR =   1.02778    

                     DELC =   1.00000    

 TOP ELEVATION OF LAYER 1 =   1.00000    

   MODEL LAYER BOTTOM EL. =   0.00000     FOR LAYER   1


 STRESS PERIOD     LENGTH       TIME STEPS     MULTIPLIER FOR DELT    SS FLAG
 ----------------------------------------------------------------------------
        1         1.000000          1                    1.000         SS

 STEADY-STATE SIMULATION



 
 #Locally Refined Grid: Homogeneous                                              
 #Steffen Mehl 03/22/2007--> MULTIPLE CHILDREN                                   
 THE FREE FORMAT OPTION HAS BEEN SELECTED
 CALCULATE FLOW BETWEEN ADJACENT CONSTANT-HEAD CELLS

 OPENING FILE ON UNIT   99:
 child.ibd                                                                                                                                                                                               



                     BOUNDARY ARRAY FOR LAYER   1
 READING ON UNIT   99 WITH FORMAT: (154I3)             

 AQUIFER HEAD WILL BE SET TO  -999.00     AT ALL NO-FLOW NODES (IBOUND=0).

             INITIAL HEAD =   5.50000     FOR LAYER   1

 OUTPUT CONTROL IS SPECIFIED ONLY AT TIME STEPS FOR WHICH OUTPUT IS DESIRED
 HEAD PRINT FORMAT CODE IS   0    DRAWDOWN PRINT FORMAT CODE IS   0
 HEADS WILL BE SAVED ON UNIT   86    DRAWDOWNS WILL BE SAVED ON UNIT    0

 ZONE OPTION, INPUT READ FROM UNIT   28
 # this is the zone array for the child grid.  Garcia heterogeneity
     2 ZONE ARRAYS



             ZONE ARRAY: czone     
 READING ON UNIT   28 WITH FORMAT: (100I5)             



             ZONE ARRAY: rchc      
 READING ON UNIT   28 WITH FORMAT: (154I3)             

 LGR -- LOCAL GRID REFINEMENT, VERSION 1.2.0 05/18/2010
        INPUT READ FOR MODEL  2 DEFINED BY NAME FILE CHILD1.nam

 LOCAL GRID REFINEMENT IS ACTIVE FOR CHILD ONLY
               STARTING HEADS FROM PARENT WILL BE USED: ISHFLG =   1
               VALUE IN IBOUND INDICATING BOUNDARY INTERFACE =  -59
               BOUNDARY HEADS WILL BE SAVED ON UNIT  80
               BOUNDARY FLUXES WILL BE SAVED ON UNIT  81
               MAX NUMBER OF LGR ITERATIONS = 15
               LGR ITERATION RESULTS WRITTEN TO SCREEN: IOUTLGR =  -1

               WEIGHTING FACTORS FOR RELAXATION
               RELAXH(HEAD) RELAXF(FLUX)
               -------------------------
               0.500E+00      0.500E+00

               CLOSURE CRITERIA FOR LGR ITERATIONS
               HCLOSELGR       FCLOSELGR
               -------------------------
               1.000E-05      1.000E-05

               STARTING LAYER, ROW, COLUMN=   1,  20,  22
               ENDING LAYER, ROW, COLUMN=     1,  31,  39
               NCPP: NUMBER OF CHILD CELLS PER WIDTH OF PARENT CELL= 9
               NCPPL: NUMBER OF CHILD LAYERS IN LAYER  1 OF PARENT = 1

 LPF -- LAYER-PROPERTY FLOW PACKAGE, VERSION 7, 5/2/2005
         INPUT READ FROM UNIT   27
 # LPF file for child grid.  Homogeneous
 CELL-BY-CELL FLOWS WILL BE SAVED ON UNIT   88
 HEAD AT CELLS THAT CONVERT TO DRY=   0.0000    
     5 Named Parameters     

   LAYER FLAGS:
 LAYER       LAYTYP        LAYAVG         CHANI        LAYVKA        LAYWET
 ---------------------------------------------------------------------------
    1             0             0     1.000E+00             0             0

   INTERPRETATION OF LAYER FLAGS:
                        INTERBLOCK     HORIZONTAL    DATA IN
         LAYER TYPE   TRANSMISSIVITY   ANISOTROPY   ARRAY VKA   WETTABILITY
 LAYER      (LAYTYP)      (LAYAVG)       (CHANI)      (LAYVKA)      (LAYWET)
 ---------------------------------------------------------------------------
    1      CONFINED      HARMONIC     1.000E+00    VERTICAL K  NON-WETTABLE

 WETTING CAPABILITY IS NOT ACTIVE IN ANY LAYER

 PARAMETERS DEFINED IN THE LPF PACKAGE

 PARAMETER NAME:T110         TYPE:HK     CLUSTERS:   1
 Parameter value from package file is:   5.00000E-04
                LAYER:   1    MULTIPLIER ARRAY: NONE    ZONE ARRAY: czone
                ZONE VALUES:  110

 PARAMETER NAME:T70          TYPE:HK     CLUSTERS:   1
 Parameter value from package file is:   5.00000E-04
                LAYER:   1    MULTIPLIER ARRAY: NONE    ZONE ARRAY: czone
                ZONE VALUES:   70

 PARAMETER NAME:T30          TYPE:HK     CLUSTERS:   1
 Parameter value from package file is:   5.00000E-04
                LAYER:   1    MULTIPLIER ARRAY: NONE    ZONE ARRAY: czone
                ZONE VALUES:   30

 PARAMETER NAME:T16          TYPE:HK     CLUSTERS:   1
 Parameter value from package file is:   5.00000E-04
                LAYER:   1    MULTIPLIER ARRAY: NONE    ZONE ARRAY: czone
                ZONE VALUES:   16

 PARAMETER NAME:T08          TYPE:HK     CLUSTERS:   1
 Parameter value from package file is:   5.00000E-04
                LAYER:   1    MULTIPLIER ARRAY: NONE    ZONE ARRAY: czone
                ZONE VALUES:    8

    HYD. COND. ALONG ROWS FOR LAYER   1 WILL BE DEFINED BY PARAMETERS
 (PRINT FLAG= -20)

    HYD. COND. ALONG ROWS is defined by the following parameters:
 T70       
 T30       
 T16       

    HYD. COND. ALONG ROWS =  5.000000E-04 FOR LAYER   1

      VERTICAL HYD. COND. =   1.00000     FOR LAYER   1

 WEL -- WELL PACKAGE, VERSION 7, 5/2/2005 INPUT READ FROM UNIT   22
 No named parameters
 MAXIMUM OF      1 ACTIVE WELLS AT ONE TIME


     0 Well parameters
 #==============================
 # RCLOSE  IITER HCLOSE  MXITER
 #==============================
 #==============================
 # DAMP  IADAMP  IOUTGMG
 #==============================
 #==============================
 # ISM  ISC
 #==============================
 -------------------------------------------------
 GMG -- PCG GEOMETRIC MULTI-GRID SOLUTION PACKAGE:
 -------------------------------------------------
 RCLOSE  = 1.00E-08; INNER CONVERGENCE CRITERION
 IITER   =      100; MAX INNER ITERATIONS            
 HCLOSE  = 1.00E-08; OUTER CONVERGENCE CRITERION
 MXIITER =      100; MAX OUTER ITERATIONS            
 DAMP    = 1.00E+00; DAMPING PARAMETER          
 IADAMP  =        0; ADAPTIVE DAMPING FLAG           
 IOUTGMG =        2; OUTPUT CONTROL FLAG             
 ISM     =        0; SMOOTHER FLAG                   
 ISC     =        0; COARSENING FLAG                 
 RELAX   = 0.00E+00; RELAXATION PARAMETER       
 -------------------------------------------------
 ILU SMOOTHING IMPLEMENTED
 FULL COARSENING
 -------------------------------------------------
    1 MEGABYTES OF MEMORY ALLOCATED BY GMG
 -------------------------------------------------

1
                            STRESS PERIOD NO.    1, LENGTH =   1.000000    
                            -----------------------------------------------

                              NUMBER OF TIME STEPS =     1

                               MULTIPLIER FOR DELT =     1.000

                            INITIAL TIME STEP SIZE =   1.000000    

 WELL NO.  LAYER   ROW   COL   STRESS RATE         
 --------------------------------------------------
      1      1     55     73     -0.5500E-02

      1 WELL 
 
 SOLVING FOR HEAD 
 ITER:   0  RES: 3.7683E-04  CFAC: 1.000
 ITER:   1  RES: 3.1642E-20  CFAC: 0.000
 ---------------------------------------------------------
 PCG ITERATIONS                    :    1
 DAMPING                           : 1.000
 L2-NORM OF RESIDUAL               : 3.1642E-20
 MAX HEAD CHANGE                   : 1.3549E-01
 MAX HEAD CHANGE AT (COL,ROW,LAY)  : (    23,   100,     1)
 ---------------------------------------------------------

 ITER:   0  RES: 4.0798E-18  CFAC: 1.000
 ITER:   1  RES: 1.9699E-33  CFAC: 0.000
 ---------------------------------------------------------
 PCG ITERATIONS                    :    1
 DAMPING                           : 1.000
 L2-NORM OF RESIDUAL               : 1.9699E-33
 MAX HEAD CHANGE                   : 6.9389E-15
 MAX HEAD CHANGE AT (COL,ROW,LAY)  : (     1,    24,     1)
 ---------------------------------------------------------

 -------------------------------
 TIME STEP            :      1
 STRESS PERIOD        :      1
 GMG CALLS            :      2
 PCG ITERATIONS       :      2
 -------------------------------
 TOTAL PCG ITERATIONS :      2
 -------------------------------

 ITER:   0  RES: 1.9049E-02  CFAC: 1.000
 ITER:   1  RES: 8.5125E-06  CFAC: 0.000
 ITER:   2  RES: 3.2613E-07  CFAC: 0.038
 ITER:   3  RES: 4.9982E-09  CFAC: 0.015
 ---------------------------------------------------------
 PCG ITERATIONS                    :    3
 DAMPING                           : 1.000
 L2-NORM OF RESIDUAL               : 4.9982E-09
 MAX HEAD CHANGE                   : 3.8448E+00
 MAX HEAD CHANGE AT (COL,ROW,LAY)  : (    73,    55,     1)
 ---------------------------------------------------------

 ITER:   0  RES: 4.9982E-09  CFAC: 1.000
 ITER:   1  RES: 1.5655E-10  CFAC: 0.031
 ---------------------------------------------------------
 PCG ITERATIONS                    :    1
 DAMPING                           : 1.000
 L2-NORM OF RESIDUAL               : 1.5655E-10
 MAX HEAD CHANGE                   : 1.5616E-06
 MAX HEAD CHANGE AT (COL,ROW,LAY)  : (    28,    96,     1)
 ---------------------------------------------------------

 ITER:   0  RES: 1.5655E-10  CFAC: 1.000
 ITER:   1  RES: 3.4713E-12  CFAC: 0.022
 ---------------------------------------------------------
 PCG ITERATIONS                    :    1
 DAMPING                           : 1.000
 L2-NORM OF RESIDUAL               : 3.4713E-12
 MAX HEAD CHANGE                   : 2.7488E-08
 MAX HEAD CHANGE AT (COL,ROW,LAY)  : (    73,    55,     1)
 ---------------------------------------------------------

 ITER:   0  RES: 3.4713E-12  CFAC: 1.000
 ITER:   1  RES: 1.4008E-13  CFAC: 0.040
 ---------------------------------------------------------
 PCG ITERATIONS                    :    1
 DAMPING                           : 1.000
 L2-NORM OF RESIDUAL               : 1.4008E-13
 MAX HEAD CHANGE                   : 8.9661E-10
 MAX HEAD CHANGE AT (COL,ROW,LAY)  : (    28,    95,     1)
 ---------------------------------------------------------

 -------------------------------
 TIME STEP            :      1
 STRESS PERIOD        :      1
 GMG CALLS            :      4
 PCG ITERATIONS       :      6
 -------------------------------
 TOTAL PCG ITERATIONS :      8
 -------------------------------

 ITER:   0  RES: 6.6732E-06  CFAC: 1.000
 ITER:   1  RES: 2.8395E-21  CFAC: 0.000
 ---------------------------------------------------------
 PCG ITERATIONS                    :    1
 DAMPING                           : 1.000
 L2-NORM OF RESIDUAL               : 2.8395E-21
 MAX HEAD CHANGE                   : 7.6299E-03
 MAX HEAD CHANGE AT (COL,ROW,LAY)  : (    74,   100,     1)
 ---------------------------------------------------------

 ITER:   0  RES: 3.8302E-18  CFAC: 1.000
 ITER:   1  RES: 7.4142E-34  CFAC: 0.000
 ---------------------------------------------------------
 PCG ITERATIONS                    :    1
 DAMPING                           : 1.000
 L2-NORM OF RESIDUAL               : 7.4142E-34
 MAX HEAD CHANGE                   : 3.3757E-15
 MAX HEAD CHANGE AT (COL,ROW,LAY)  : (     1,    88,     1)
 ---------------------------------------------------------

 -------------------------------
 TIME STEP            :      1
 STRESS PERIOD        :      1
 GMG CALLS            :      2
 PCG ITERATIONS       :      2
 -------------------------------
 TOTAL PCG ITERATIONS :     10
 -------------------------------

 ITER:   0  RES: 2.8504E-05  CFAC: 1.000
 ITER:   1  RES: 5.1326E-07  CFAC: 0.018
 ITER:   2  RES: 5.8471E-09  CFAC: 0.011
 ---------------------------------------------------------
 PCG ITERATIONS                    :    2
 DAMPING                           : 1.000
 L2-NORM OF RESIDUAL               : 5.8471E-09
 MAX HEAD CHANGE                   : 7.1140E-03
 MAX HEAD CHANGE AT (COL,ROW,LAY)  : (    73,    99,     1)
 ---------------------------------------------------------

 ITER:   0  RES: 5.8471E-09  CFAC: 1.000
 ITER:   1  RES: 2.8967E-10  CFAC: 0.050
 ---------------------------------------------------------
 PCG ITERATIONS                    :    1
 DAMPING                           : 1.000
 L2-NORM OF RESIDUAL               : 2.8967E-10
 MAX HEAD CHANGE                   : 4.8959E-06
 MAX HEAD CHANGE AT (COL,ROW,LAY)  : (    39,    94,     1)
 ---------------------------------------------------------

 ITER:   0  RES: 2.8967E-10  CFAC: 1.000
 ITER:   1  RES: 1.1899E-11  CFAC: 0.041
 ---------------------------------------------------------
 PCG ITERATIONS                    :    1
 DAMPING                           : 1.000
 L2-NORM OF RESIDUAL               : 1.1899E-11
 MAX HEAD CHANGE                   : 1.7023E-07
 MAX HEAD CHANGE AT (COL,ROW,LAY)  : (    73,    95,     1)
 ---------------------------------------------------------

 ITER:   0  RES: 1.1899E-11  CFAC: 1.000
 ITER:   1  RES: 6.0225E-13  CFAC: 0.051
 ---------------------------------------------------------
 PCG ITERATIONS                    :    1
 DAMPING                           : 1.000
 L2-NORM OF RESIDUAL               : 6.0225E-13
 MAX HEAD CHANGE                   : 3.4844E-09
 MAX HEAD CHANGE AT (COL,ROW,LAY)  : (    46,    94,     1)
 ---------------------------------------------------------

 -------------------------------
 TIME STEP            :      1
 STRESS PERIOD        :      1
 GMG CALLS            :      4
 PCG ITERATIONS       :      5
 -------------------------------
 TOTAL PCG ITERATIONS :     15
 -------------------------------

 ITER:   0  RES: 1.9173E-06  CFAC: 1.000
 ITER:   1  RES: 6.9527E-22  CFAC: 0.000
 ---------------------------------------------------------
 PCG ITERATIONS                    :    1
 DAMPING                           : 1.000
 L2-NORM OF RESIDUAL               : 6.9527E-22
 MAX HEAD CHANGE                   : 2.6741E-03
 MAX HEAD CHANGE AT (COL,ROW,LAY)  : (    72,   100,     1)
 ---------------------------------------------------------

 ITER:   0  RES: 3.7495E-18  CFAC: 1.000
 ITER:   1  RES: 7.5797E-34  CFAC: 0.000
 ---------------------------------------------------------
 PCG ITERATIONS                    :    1
 DAMPING                           : 1.000
 L2-NORM OF RESIDUAL               : 7.5797E-34
 MAX HEAD CHANGE                   : 3.3757E-15
 MAX HEAD CHANGE AT (COL,ROW,LAY)  : (     1,    25,     1)
 ---------------------------------------------------------

 -------------------------------
 TIME STEP            :      1
 STRESS PERIOD        :      1
 GMG CALLS            :      2
 PCG ITERATIONS       :      2
 -------------------------------
 TOTAL PCG ITERATIONS :     17
 -------------------------------

 ITER:   0  RES: 8.2946E-06  CFAC: 1.000
 ITER:   1  RES: 1.8278E-07  CFAC: 0.022
 ITER:   2  RES: 2.4099E-09  CFAC: 0.013
 ---------------------------------------------------------
 PCG ITERATIONS                    :    2
 DAMPING                           : 1.000
 L2-NORM OF RESIDUAL               : 2.4099E-09
 MAX HEAD CHANGE                   : 2.5184E-03
 MAX HEAD CHANGE AT (COL,ROW,LAY)  : (    73,    99,     1)
 ---------------------------------------------------------

 ITER:   0  RES: 2.4099E-09  CFAC: 1.000
 ITER:   1  RES: 1.1131E-10  CFAC: 0.046
 ---------------------------------------------------------
 PCG ITERATIONS                    :    1
 DAMPING                           : 1.000
 L2-NORM OF RESIDUAL               : 1.1131E-10
 MAX HEAD CHANGE                   : 1.6404E-06
 MAX HEAD CHANGE AT (COL,ROW,LAY)  : (    37,    95,     1)
 ---------------------------------------------------------

 ITER:   0  RES: 1.1131E-10  CFAC: 1.000
 ITER:   1  RES: 5.3109E-12  CFAC: 0.048
 ---------------------------------------------------------
 PCG ITERATIONS                    :    1
 DAMPING                           : 1.000
 L2-NORM OF RESIDUAL               : 5.3109E-12
 MAX HEAD CHANGE                   : 7.0279E-08
 MAX HEAD CHANGE AT (COL,ROW,LAY)  : (    73,    95,     1)
 ---------------------------------------------------------

 ITER:   0  RES: 5.3109E-12  CFAC: 1.000
 ITER:   1  RES: 2.4163E-13  CFAC: 0.045
 ---------------------------------------------------------
 PCG ITERATIONS                    :    1
 DAMPING                           : 1.000
 L2-NORM OF RESIDUAL               : 2.4163E-13
 MAX HEAD CHANGE                   : 1.4787E-09
 MAX HEAD CHANGE AT (COL,ROW,LAY)  : (    46,    95,     1)
 ---------------------------------------------------------

 -------------------------------
 TIME STEP            :      1
 STRESS PERIOD        :      1
 GMG CALLS            :      4
 PCG ITERATIONS       :      5
 -------------------------------
 TOTAL PCG ITERATIONS :     22
 -------------------------------

 ITER:   0  RES: 8.1753E-07  CFAC: 1.000
 ITER:   1  RES: 3.1532E-22  CFAC: 0.000
 ---------------------------------------------------------
 PCG ITERATIONS                    :    1
 DAMPING                           : 1.000
 L2-NORM OF RESIDUAL               : 3.1532E-22
 MAX HEAD CHANGE                   : 5.7944E-04
 MAX HEAD CHANGE AT (COL,ROW,LAY)  : (    36,   100,     1)
 ---------------------------------------------------------

 ITER:   0  RES: 3.9152E-18  CFAC: 1.000
 ITER:   1  RES: 6.6745E-34  CFAC: 0.000
 ---------------------------------------------------------
 PCG ITERATIONS                    :    1
 DAMPING                           : 1.000
 L2-NORM OF RESIDUAL               : 6.6745E-34
 MAX HEAD CHANGE                   : 2.3442E-15
 MAX HEAD CHANGE AT (COL,ROW,LAY)  : (   154,    98,     1)
 ---------------------------------------------------------

 -------------------------------
 TIME STEP            :      1
 STRESS PERIOD        :      1
 GMG CALLS            :      2
 PCG ITERATIONS       :      2
 -------------------------------
 TOTAL PCG ITERATIONS :     24
 -------------------------------

 ITER:   0  RES: 3.5258E-06  CFAC: 1.000
 ITER:   1  RES: 7.7564E-08  CFAC: 0.022
 ITER:   2  RES: 1.0603E-09  CFAC: 0.014
 ---------------------------------------------------------
 PCG ITERATIONS                    :    2
 DAMPING                           : 1.000
 L2-NORM OF RESIDUAL               : 1.0603E-09
 MAX HEAD CHANGE                   : 5.5738E-04
 MAX HEAD CHANGE AT (COL,ROW,LAY)  : (   115,    99,     1)
 ---------------------------------------------------------

 ITER:   0  RES: 1.0603E-09  CFAC: 1.000
 ITER:   1  RES: 4.5757E-11  CFAC: 0.043
 ---------------------------------------------------------
 PCG ITERATIONS                    :    1
 DAMPING                           : 1.000
 L2-NORM OF RESIDUAL               : 4.5757E-11
 MAX HEAD CHANGE                   : 6.5809E-07
 MAX HEAD CHANGE AT (COL,ROW,LAY)  : (   149,    67,     1)
 ---------------------------------------------------------

 ITER:   0  RES: 4.5757E-11  CFAC: 1.000
 ITER:   1  RES: 2.3914E-12  CFAC: 0.052
 ---------------------------------------------------------
 PCG ITERATIONS                    :    1
 DAMPING                           : 1.000
 L2-NORM OF RESIDUAL               : 2.3914E-12
 MAX HEAD CHANGE                   : 2.0916E-08
 MAX HEAD CHANGE AT (COL,ROW,LAY)  : (    27,    94,     1)
 ---------------------------------------------------------

 ITER:   0  RES: 2.3914E-12  CFAC: 1.000
 ITER:   1  RES: 9.7173E-14  CFAC: 0.041
 ---------------------------------------------------------
 PCG ITERATIONS                    :    1
 DAMPING                           : 1.000
 L2-NORM OF RESIDUAL               : 9.7173E-14
 MAX HEAD CHANGE                   : 5.9593E-10
 MAX HEAD CHANGE AT (COL,ROW,LAY)  : (     6,    83,     1)
 ---------------------------------------------------------

 -------------------------------
 TIME STEP            :      1
 STRESS PERIOD        :      1
 GMG CALLS            :      4
 PCG ITERATIONS       :      5
 -------------------------------
 TOTAL PCG ITERATIONS :     29
 -------------------------------

 ITER:   0  RES: 6.3418E-07  CFAC: 1.000
 ITER:   1  RES: 2.5095E-22  CFAC: 0.000
 ---------------------------------------------------------
 PCG ITERATIONS                    :    1
 DAMPING                           : 1.000
 L2-NORM OF RESIDUAL               : 2.5095E-22
 MAX HEAD CHANGE                   : 6.1327E-04
 MAX HEAD CHANGE AT (COL,ROW,LAY)  : (    74,   100,     1)
 ---------------------------------------------------------

 ITER:   0  RES: 3.9391E-18  CFAC: 1.000
 ITER:   1  RES: 7.1008E-34  CFAC: 0.000
 ---------------------------------------------------------
 PCG ITERATIONS                    :    1
 DAMPING                           : 1.000
 L2-NORM OF RESIDUAL               : 7.1008E-34
 MAX HEAD CHANGE                   : 3.0006E-15
 MAX HEAD CHANGE AT (COL,ROW,LAY)  : (     1,    86,     1)
 ---------------------------------------------------------

 -------------------------------
 TIME STEP            :      1
 STRESS PERIOD        :      1
 GMG CALLS            :      2
 PCG ITERATIONS       :      2
 -------------------------------
 TOTAL PCG ITERATIONS :     31
 -------------------------------

 ITER:   0  RES: 2.7176E-06  CFAC: 1.000
 ITER:   1  RES: 4.5269E-08  CFAC: 0.017
 ITER:   2  RES: 2.5315E-10  CFAC: 0.006
 ---------------------------------------------------------
 PCG ITERATIONS                    :    2
 DAMPING                           : 1.000
 L2-NORM OF RESIDUAL               : 2.5315E-10
 MAX HEAD CHANGE                   : 5.6799E-04
 MAX HEAD CHANGE AT (COL,ROW,LAY)  : (    73,    99,     1)
 ---------------------------------------------------------

 ITER:   0  RES: 2.5315E-10  CFAC: 1.000
 ITER:   1  RES: 8.1011E-12  CFAC: 0.032
 ---------------------------------------------------------
 PCG ITERATIONS                    :    1
 DAMPING                           : 1.000
 L2-NORM OF RESIDUAL               : 8.1011E-12
 MAX HEAD CHANGE                   : 2.0590E-07
 MAX HEAD CHANGE AT (COL,ROW,LAY)  : (   148,    84,     1)
 ---------------------------------------------------------

 ITER:   0  RES: 8.1011E-12  CFAC: 1.000
 ITER:   1  RES: 3.1491E-13  CFAC: 0.039
 ---------------------------------------------------------
 PCG ITERATIONS                    :    1
 DAMPING                           : 1.000
 L2-NORM OF RESIDUAL               : 3.1491E-13
 MAX HEAD CHANGE                   : 4.7362E-09
 MAX HEAD CHANGE AT (COL,ROW,LAY)  : (   102,    95,     1)
 ---------------------------------------------------------

 -------------------------------
 TIME STEP            :      1
 STRESS PERIOD        :      1
 GMG CALLS            :      3
 PCG ITERATIONS       :      4
 -------------------------------
 TOTAL PCG ITERATIONS :     35
 -------------------------------

 ITER:   0  RES: 4.0330E-07  CFAC: 1.000
 ITER:   1  RES: 1.6179E-22  CFAC: 0.000
 ---------------------------------------------------------
 PCG ITERATIONS                    :    1
 DAMPING                           : 1.000
 L2-NORM OF RESIDUAL               : 1.6179E-22
 MAX HEAD CHANGE                   : 5.8056E-04
 MAX HEAD CHANGE AT (COL,ROW,LAY)  : (    72,   100,     1)
 ---------------------------------------------------------

 ITER:   0  RES: 4.1766E-18  CFAC: 1.000
 ITER:   1  RES: 1.1424E-33  CFAC: 0.000
 ---------------------------------------------------------
 PCG ITERATIONS                    :    1
 DAMPING                           : 1.000
 L2-NORM OF RESIDUAL               : 1.1424E-33
 MAX HEAD CHANGE                   : 3.3757E-15
 MAX HEAD CHANGE AT (COL,ROW,LAY)  : (     1,    93,     1)
 ---------------------------------------------------------

 -------------------------------
 TIME STEP            :      1
 STRESS PERIOD        :      1
 GMG CALLS            :      2
 PCG ITERATIONS       :      2
 -------------------------------
 TOTAL PCG ITERATIONS :     37
 -------------------------------

 ITER:   0  RES: 1.7457E-06  CFAC: 1.000
 ITER:   1  RES: 3.5274E-08  CFAC: 0.020
 ITER:   2  RES: 4.1742E-10  CFAC: 0.012
 ---------------------------------------------------------
 PCG ITERATIONS                    :    2
 DAMPING                           : 1.000
 L2-NORM OF RESIDUAL               : 4.1742E-10
 MAX HEAD CHANGE                   : 5.4588E-04
 MAX HEAD CHANGE AT (COL,ROW,LAY)  : (    73,    99,     1)
 ---------------------------------------------------------

 ITER:   0  RES: 4.1742E-10  CFAC: 1.000
 ITER:   1  RES: 1.9706E-11  CFAC: 0.047
 ---------------------------------------------------------
 PCG ITERATIONS                    :    1
 DAMPING                           : 1.000
 L2-NORM OF RESIDUAL               : 1.9706E-11
 MAX HEAD CHANGE                   : 3.4962E-07
 MAX HEAD CHANGE AT (COL,ROW,LAY)  : (    39,    95,     1)
 ---------------------------------------------------------

 ITER:   0  RES: 1.9706E-11  CFAC: 1.000
 ITER:   1  RES: 9.0284E-13  CFAC: 0.046
 ---------------------------------------------------------
 PCG ITERATIONS                    :    1
 DAMPING                           : 1.000
 L2-NORM OF RESIDUAL               : 9.0284E-13
 MAX HEAD CHANGE                   : 1.3553E-08
 MAX HEAD CHANGE AT (COL,ROW,LAY)  : (    73,    95,     1)
 ---------------------------------------------------------

 ITER:   0  RES: 9.0284E-13  CFAC: 1.000
 ITER:   1  RES: 4.3372E-14  CFAC: 0.048
 ---------------------------------------------------------
 PCG ITERATIONS                    :    1
 DAMPING                           : 1.000
 L2-NORM OF RESIDUAL               : 4.3372E-14
 MAX HEAD CHANGE                   : 2.7858E-10
 MAX HEAD CHANGE AT (COL,ROW,LAY)  : (    44,    95,     1)
 ---------------------------------------------------------

 -------------------------------
 TIME STEP            :      1
 STRESS PERIOD        :      1
 GMG CALLS            :      4
 PCG ITERATIONS       :      5
 -------------------------------
 TOTAL PCG ITERATIONS :     42
 -------------------------------

 ITER:   0  RES: 2.1714E-07  CFAC: 1.000
 ITER:   1  RES: 8.5681E-23  CFAC: 0.000
 ---------------------------------------------------------
 PCG ITERATIONS                    :    1
 DAMPING                           : 1.000
 L2-NORM OF RESIDUAL               : 8.5681E-23
 MAX HEAD CHANGE                   : 2.9777E-04
 MAX HEAD CHANGE AT (COL,ROW,LAY)  : (    72,   100,     1)
 ---------------------------------------------------------

 ITER:   0  RES: 4.1766E-18  CFAC: 1.000
 ITER:   1  RES: 8.8190E-34  CFAC: 0.000
 ---------------------------------------------------------
 PCG ITERATIONS                    :    1
 DAMPING                           : 1.000
 L2-NORM OF RESIDUAL               : 8.8190E-34
 MAX HEAD CHANGE                   : 4.3582E-15
 MAX HEAD CHANGE AT (COL,ROW,LAY)  : (    14,   100,     1)
 ---------------------------------------------------------

 -------------------------------
 TIME STEP            :      1
 STRESS PERIOD        :      1
 GMG CALLS            :      2
 PCG ITERATIONS       :      2
 -------------------------------
 TOTAL PCG ITERATIONS :     44
 -------------------------------

 ITER:   0  RES: 9.4360E-07  CFAC: 1.000
 ITER:   1  RES: 2.2446E-08  CFAC: 0.024
 ITER:   2  RES: 2.3689E-10  CFAC: 0.011
 ---------------------------------------------------------
 PCG ITERATIONS                    :    2
 DAMPING                           : 1.000
 L2-NORM OF RESIDUAL               : 2.3689E-10
 MAX HEAD CHANGE                   : 2.8164E-04
 MAX HEAD CHANGE AT (COL,ROW,LAY)  : (    73,    99,     1)
 ---------------------------------------------------------

 ITER:   0  RES: 2.3689E-10  CFAC: 1.000
 ITER:   1  RES: 1.0899E-11  CFAC: 0.046
 ---------------------------------------------------------
 PCG ITERATIONS                    :    1
 DAMPING                           : 1.000
 L2-NORM OF RESIDUAL               : 1.0899E-11
 MAX HEAD CHANGE                   : 1.5516E-07
 MAX HEAD CHANGE AT (COL,ROW,LAY)  : (   108,    95,     1)
 ---------------------------------------------------------

 ITER:   0  RES: 1.0899E-11  CFAC: 1.000
 ITER:   1  RES: 4.7504E-13  CFAC: 0.044
 ---------------------------------------------------------
 PCG ITERATIONS                    :    1
 DAMPING                           : 1.000
 L2-NORM OF RESIDUAL               : 4.7504E-13
 MAX HEAD CHANGE                   : 7.2614E-09
 MAX HEAD CHANGE AT (COL,ROW,LAY)  : (    73,    95,     1)
 ---------------------------------------------------------

 -------------------------------
 TIME STEP            :      1
 STRESS PERIOD        :      1
 GMG CALLS            :      3
 PCG ITERATIONS       :      4
 -------------------------------
 TOTAL PCG ITERATIONS :     48
 -------------------------------

 ITER:   0  RES: 7.3097E-08  CFAC: 1.000
 ITER:   1  RES: 2.1821E-23  CFAC: 0.000
 ---------------------------------------------------------
 PCG ITERATIONS                    :    1
 DAMPING                           : 1.000
 L2-NORM OF RESIDUAL               : 2.1821E-23
 MAX HEAD CHANGE                   : 7.4885E-05
 MAX HEAD CHANGE AT (COL,ROW,LAY)  : (    72,   100,     1)
 ---------------------------------------------------------

 ITER:   0  RES: 3.9331E-18  CFAC: 1.000
 ITER:   1  RES: 1.0731E-33  CFAC: 0.000
 ---------------------------------------------------------
 PCG ITERATIONS                    :    1
 DAMPING                           : 1.000
 L2-NORM OF RESIDUAL               : 1.0731E-33
 MAX HEAD CHANGE                   : 3.5658E-15
 MAX HEAD CHANGE AT (COL,ROW,LAY)  : (    16,     1,     1)
 ---------------------------------------------------------

 -------------------------------
 TIME STEP            :      1
 STRESS PERIOD        :      1
 GMG CALLS            :      2
 PCG ITERATIONS       :      2
 -------------------------------
 TOTAL PCG ITERATIONS :     50
 -------------------------------

 ITER:   0  RES: 3.1924E-07  CFAC: 1.000
 ITER:   1  RES: 8.1209E-09  CFAC: 0.025
 ---------------------------------------------------------
 PCG ITERATIONS                    :    1
 DAMPING                           : 1.000
 L2-NORM OF RESIDUAL               : 8.1209E-09
 MAX HEAD CHANGE                   : 7.1423E-05
 MAX HEAD CHANGE AT (COL,ROW,LAY)  : (    73,    99,     1)
 ---------------------------------------------------------

 ITER:   0  RES: 8.1209E-09  CFAC: 1.000
 ITER:   1  RES: 4.2196E-10  CFAC: 0.052
 ---------------------------------------------------------
 PCG ITERATIONS                    :    1
 DAMPING                           : 1.000
 L2-NORM OF RESIDUAL               : 4.2196E-10
 MAX HEAD CHANGE                   : 3.5403E-06
 MAX HEAD CHANGE AT (COL,ROW,LAY)  : (    73,    94,     1)
 ---------------------------------------------------------

 ITER:   0  RES: 4.2196E-10  CFAC: 1.000
 ITER:   1  RES: 1.4298E-11  CFAC: 0.034
 ---------------------------------------------------------
 PCG ITERATIONS                    :    1
 DAMPING                           : 1.000
 L2-NORM OF RESIDUAL               : 1.4298E-11
 MAX HEAD CHANGE                   : 8.5061E-08
 MAX HEAD CHANGE AT (COL,ROW,LAY)  : (    73,    99,     1)
 ---------------------------------------------------------

 ITER:   0  RES: 1.4298E-11  CFAC: 1.000
 ITER:   1  RES: 7.8568E-13  CFAC: 0.055
 ---------------------------------------------------------
 PCG ITERATIONS                    :    1
 DAMPING                           : 1.000
 L2-NORM OF RESIDUAL               : 7.8568E-13
 MAX HEAD CHANGE                   : 4.7883E-09
 MAX HEAD CHANGE AT (COL,ROW,LAY)  : (    73,    93,     1)
 ---------------------------------------------------------

 -------------------------------
 TIME STEP            :      1
 STRESS PERIOD        :      1
 GMG CALLS            :      4
 PCG ITERATIONS       :      4
 -------------------------------
 TOTAL PCG ITERATIONS :     54
 -------------------------------

 ITER:   0  RES: 2.1211E-08  CFAC: 1.000
 ITER:   1  RES: 7.9188E-24  CFAC: 0.000
 ---------------------------------------------------------
 PCG ITERATIONS                    :    1
 DAMPING                           : 1.000
 L2-NORM OF RESIDUAL               : 7.9188E-24
 MAX HEAD CHANGE                   : 1.9983E-05
 MAX HEAD CHANGE AT (COL,ROW,LAY)  : (    72,   100,     1)
 ---------------------------------------------------------

 ITER:   0  RES: 4.0393E-18  CFAC: 1.000
 ITER:   1  RES: 9.4317E-34  CFAC: 0.000
 ---------------------------------------------------------
 PCG ITERATIONS                    :    1
 DAMPING                           : 1.000
 L2-NORM OF RESIDUAL               : 9.4317E-34
 MAX HEAD CHANGE                   : 3.9383E-15
 MAX HEAD CHANGE AT (COL,ROW,LAY)  : (     1,    67,     1)
 ---------------------------------------------------------

 -------------------------------
 TIME STEP            :      1
 STRESS PERIOD        :      1
 GMG CALLS            :      2
 PCG ITERATIONS       :      2
 -------------------------------
 TOTAL PCG ITERATIONS :     56
 -------------------------------

 ITER:   0  RES: 9.2209E-08  CFAC: 1.000
 ITER:   1  RES: 1.6483E-09  CFAC: 0.018
 ---------------------------------------------------------
 PCG ITERATIONS                    :    1
 DAMPING                           : 1.000
 L2-NORM OF RESIDUAL               : 1.6483E-09
 MAX HEAD CHANGE                   : 1.8814E-05
 MAX HEAD CHANGE AT (COL,ROW,LAY)  : (    73,    99,     1)
 ---------------------------------------------------------

 ITER:   0  RES: 1.6483E-09  CFAC: 1.000
 ITER:   1  RES: 7.4167E-11  CFAC: 0.045
 ---------------------------------------------------------
 PCG ITERATIONS                    :    1
 DAMPING                           : 1.000
 L2-NORM OF RESIDUAL               : 7.4167E-11
 MAX HEAD CHANGE                   : 6.9400E-07
 MAX HEAD CHANGE AT (COL,ROW,LAY)  : (   117,     7,     1)
 ---------------------------------------------------------

 ITER:   0  RES: 7.4167E-11  CFAC: 1.000
 ITER:   1  RES: 2.7193E-12  CFAC: 0.037
 ---------------------------------------------------------
 PCG ITERATIONS                    :    1
 DAMPING                           : 1.000
 L2-NORM OF RESIDUAL               : 2.7193E-12
 MAX HEAD CHANGE                   : 1.4966E-08
 MAX HEAD CHANGE AT (COL,ROW,LAY)  : (    75,     7,     1)
 ---------------------------------------------------------

 ITER:   0  RES: 2.7193E-12  CFAC: 1.000
 ITER:   1  RES: 1.3659E-13  CFAC: 0.050
 ---------------------------------------------------------
 PCG ITERATIONS                    :    1
 DAMPING                           : 1.000
 L2-NORM OF RESIDUAL               : 1.3659E-13
 MAX HEAD CHANGE                   : 7.1536E-10
 MAX HEAD CHANGE AT (COL,ROW,LAY)  : (    35,     8,     1)
 ---------------------------------------------------------

 -------------------------------
 TIME STEP            :      1
 STRESS PERIOD        :      1
 GMG CALLS            :      4
 PCG ITERATIONS       :      4
 -------------------------------
 TOTAL PCG ITERATIONS :     60
 -------------------------------

 ITER:   0  RES: 2.5033E-08  CFAC: 1.000
 ITER:   1  RES: 7.6972E-24  CFAC: 0.000
 ---------------------------------------------------------
 PCG ITERATIONS                    :    1
 DAMPING                           : 1.000
 L2-NORM OF RESIDUAL               : 7.6972E-24
 MAX HEAD CHANGE                   : 3.2633E-05
 MAX HEAD CHANGE AT (COL,ROW,LAY)  : (    72,   100,     1)
 ---------------------------------------------------------

 ITER:   0  RES: 4.2047E-18  CFAC: 1.000
 ITER:   1  RES: 8.7859E-34  CFAC: 0.000
 ---------------------------------------------------------
 PCG ITERATIONS                    :    1
 DAMPING                           : 1.000
 L2-NORM OF RESIDUAL               : 8.7859E-34
 MAX HEAD CHANGE                   : 4.7544E-15
 MAX HEAD CHANGE AT (COL,ROW,LAY)  : (    14,   100,     1)
 ---------------------------------------------------------

 -------------------------------
 TIME STEP            :      1
 STRESS PERIOD        :      1
 GMG CALLS            :      2
 PCG ITERATIONS       :      2
 -------------------------------
 TOTAL PCG ITERATIONS :     62
 -------------------------------

 ITER:   0  RES: 1.0835E-07  CFAC: 1.000
 ITER:   1  RES: 2.2305E-09  CFAC: 0.021
 ---------------------------------------------------------
 PCG ITERATIONS                    :    1
 DAMPING                           : 1.000
 L2-NORM OF RESIDUAL               : 2.2305E-09
 MAX HEAD CHANGE                   : 3.0837E-05
 MAX HEAD CHANGE AT (COL,ROW,LAY)  : (    73,    99,     1)
 ---------------------------------------------------------

 ITER:   0  RES: 2.2305E-09  CFAC: 1.000
 ITER:   1  RES: 9.4015E-11  CFAC: 0.042
 ---------------------------------------------------------
 PCG ITERATIONS                    :    1
 DAMPING                           : 1.000
 L2-NORM OF RESIDUAL               : 9.4015E-11
 MAX HEAD CHANGE                   : 1.2489E-06
 MAX HEAD CHANGE AT (COL,ROW,LAY)  : (    72,    94,     1)
 ---------------------------------------------------------

 ITER:   0  RES: 9.4015E-11  CFAC: 1.000
 ITER:   1  RES: 2.8608E-12  CFAC: 0.030
 ---------------------------------------------------------
 PCG ITERATIONS                    :    1
 DAMPING                           : 1.000
 L2-NORM OF RESIDUAL               : 2.8608E-12
 MAX HEAD CHANGE                   : 2.4024E-08
 MAX HEAD CHANGE AT (COL,ROW,LAY)  : (    73,    99,     1)
 ---------------------------------------------------------

 ITER:   0  RES: 2.8608E-12  CFAC: 1.000
 ITER:   1  RES: 1.4746E-13  CFAC: 0.052
 ---------------------------------------------------------
 PCG ITERATIONS                    :    1
 DAMPING                           : 1.000
 L2-NORM OF RESIDUAL               : 1.4746E-13
 MAX HEAD CHANGE                   : 1.2986E-09
 MAX HEAD CHANGE AT (COL,ROW,LAY)  : (    74,    94,     1)
 ---------------------------------------------------------

 -------------------------------
 TIME STEP            :      1
 STRESS PERIOD        :      1
 GMG CALLS            :      4
 PCG ITERATIONS       :      4
 -------------------------------
 TOTAL PCG ITERATIONS :     66
 -------------------------------

 ITER:   0  RES: 1.4101E-08  CFAC: 1.000
 ITER:   1  RES: 6.3370E-24  CFAC: 0.000
 ---------------------------------------------------------
 PCG ITERATIONS                    :    1
 DAMPING                           : 1.000
 L2-NORM OF RESIDUAL               : 6.3370E-24
 MAX HEAD CHANGE                   : 1.8395E-05
 MAX HEAD CHANGE AT (COL,ROW,LAY)  : (    74,   100,     1)
 ---------------------------------------------------------

 ITER:   0  RES: 3.9031E-18  CFAC: 1.000
 ITER:   1  RES: 1.0717E-33  CFAC: 0.000
 ---------------------------------------------------------
 PCG ITERATIONS                    :    1
 DAMPING                           : 1.000
 L2-NORM OF RESIDUAL               : 1.0717E-33
 MAX HEAD CHANGE                   : 3.5658E-15
 MAX HEAD CHANGE AT (COL,ROW,LAY)  : (    15,     1,     1)
 ---------------------------------------------------------

 -------------------------------
 TIME STEP            :      1
 STRESS PERIOD        :      1
 GMG CALLS            :      2
 PCG ITERATIONS       :      2
 -------------------------------
 TOTAL PCG ITERATIONS :     68
 -------------------------------

 ITER:   0  RES: 6.3092E-08  CFAC: 1.000
 ITER:   1  RES: 1.3185E-09  CFAC: 0.021
 ---------------------------------------------------------
 PCG ITERATIONS                    :    1
 DAMPING                           : 1.000
 L2-NORM OF RESIDUAL               : 1.3185E-09
 MAX HEAD CHANGE                   : 1.7357E-05
 MAX HEAD CHANGE AT (COL,ROW,LAY)  : (    73,    99,     1)
 ---------------------------------------------------------

 ITER:   0  RES: 1.3185E-09  CFAC: 1.000
 ITER:   1  RES: 5.8328E-11  CFAC: 0.044
 ---------------------------------------------------------
 PCG ITERATIONS                    :    1
 DAMPING                           : 1.000
 L2-NORM OF RESIDUAL               : 5.8328E-11
 MAX HEAD CHANGE                   : 6.7374E-07
 MAX HEAD CHANGE AT (COL,ROW,LAY)  : (    73,    94,     1)
 ---------------------------------------------------------

 ITER:   0  RES: 5.8328E-11  CFAC: 1.000
 ITER:   1  RES: 1.8985E-12  CFAC: 0.033
 ---------------------------------------------------------
 PCG ITERATIONS                    :    1
 DAMPING                           : 1.000
 L2-NORM OF RESIDUAL               : 1.8985E-12
 MAX HEAD CHANGE                   : 1.3998E-08
 MAX HEAD CHANGE AT (COL,ROW,LAY)  : (    73,    99,     1)
 ---------------------------------------------------------

 ITER:   0  RES: 1.8985E-12  CFAC: 1.000
 ITER:   1  RES: 1.0067E-13  CFAC: 0.053
 ---------------------------------------------------------
 PCG ITERATIONS                    :    1
 DAMPING                           : 1.000
 L2-NORM OF RESIDUAL               : 1.0067E-13
 MAX HEAD CHANGE                   : 7.2848E-10
 MAX HEAD CHANGE AT (COL,ROW,LAY)  : (    73,    94,     1)
 ---------------------------------------------------------

 -------------------------------
 TIME STEP            :      1
 STRESS PERIOD        :      1
 GMG CALLS            :      4
 PCG ITERATIONS       :      4
 -------------------------------
 TOTAL PCG ITERATIONS :     72
 -------------------------------

 ITER:   0  RES: 4.5076E-09  CFAC: 1.000
 ITER:   1  RES: 1.5613E-24  CFAC: 0.000
 ---------------------------------------------------------
 PCG ITERATIONS                    :    1
 DAMPING                           : 1.000
 L2-NORM OF RESIDUAL               : 1.5613E-24
 MAX HEAD CHANGE                   : 5.5565E-06
 MAX HEAD CHANGE AT (COL,ROW,LAY)  : (    74,   100,     1)
 ---------------------------------------------------------

 ITER:   0  RES: 4.0798E-18  CFAC: 1.000
 ITER:   1  RES: 6.7394E-34  CFAC: 0.000
 ---------------------------------------------------------
 PCG ITERATIONS                    :    1
 DAMPING                           : 1.000
 L2-NORM OF RESIDUAL               : 6.7394E-34
 MAX HEAD CHANGE                   : 2.6255E-15
 MAX HEAD CHANGE AT (COL,ROW,LAY)  : (     1,    81,     1)
 ---------------------------------------------------------

 -------------------------------
 TIME STEP            :      1
 STRESS PERIOD        :      1
 GMG CALLS            :      2
 PCG ITERATIONS       :      2
 -------------------------------
 TOTAL PCG ITERATIONS :     74
 -------------------------------

 ITER:   0  RES: 2.6619E-08  CFAC: 1.000
 ITER:   1  RES: 4.4079E-10  CFAC: 0.017
 ---------------------------------------------------------
 PCG ITERATIONS                    :    1
 DAMPING                           : 1.000
 L2-NORM OF RESIDUAL               : 4.4079E-10
 MAX HEAD CHANGE                   : 5.0764E-06
 MAX HEAD CHANGE AT (COL,ROW,LAY)  : (    74,    99,     1)
 ---------------------------------------------------------

 ITER:   0  RES: 4.4079E-10  CFAC: 1.000
 ITER:   1  RES: 2.0232E-11  CFAC: 0.046
 ---------------------------------------------------------
 PCG ITERATIONS                    :    1
 DAMPING                           : 1.000
 L2-NORM OF RESIDUAL               : 2.0232E-11
 MAX HEAD CHANGE                   : 2.1109E-07
 MAX HEAD CHANGE AT (COL,ROW,LAY)  : (    73,     7,     1)
 ---------------------------------------------------------

 ITER:   0  RES: 2.0232E-11  CFAC: 1.000
 ITER:   1  RES: 6.5403E-13  CFAC: 0.032
 ---------------------------------------------------------
 PCG ITERATIONS                    :    1
 DAMPING                           : 1.000
 L2-NORM OF RESIDUAL               : 6.5403E-13
 MAX HEAD CHANGE                   : 3.3160E-09
 MAX HEAD CHANGE AT (COL,ROW,LAY)  : (    75,     2,     1)
 ---------------------------------------------------------

 -------------------------------
 TIME STEP            :      1
 STRESS PERIOD        :      1
 GMG CALLS            :      3
 PCG ITERATIONS       :      3
 -------------------------------
 TOTAL PCG ITERATIONS :     77
 -------------------------------


 OUTPUT CONTROL FOR STRESS PERIOD    1   TIME STEP   1
    PRINT HEAD FOR ALL LAYERS
    SAVE HEAD FOR ALL LAYERS
    PRINT BUDGET
    SAVE BUDGET
 UBUDSV SAVING "   CONSTANT HEAD" ON UNIT 88 AT TIME STEP  1, STRESS PERIOD    1
 UBUDSV SAVING "FLOW RIGHT FACE " ON UNIT 88 AT TIME STEP  1, STRESS PERIOD    1
 UBUDSV SAVING "FLOW FRONT FACE " ON UNIT 88 AT TIME STEP  1, STRESS PERIOD    1
1
              HEAD IN LAYER   1 AT END OF TIME STEP   1 IN STRESS PERIOD    1
  ---------------------------------------------------------------------------

            1           2           3           4           5           6           7           8           9          10
           11          12          13          14          15          16          17          18          19          20
           21          22          23          24          25          26          27          28          29          30
           31          32          33          34          35          36          37          38          39          40
           41          42          43          44          45          46          47          48          49          50
           51          52          53          54          55          56          57          58          59          60
           61          62          63          64          65          66          67          68          69          70
           71          72          73          74          75          76          77          78          79          80
           81          82          83          84          85          86          87          88          89          90
           91          92          93          94          95          96          97          98          99         100
          101         102         103         104         105         106         107         108         109         110
          111         112         113         114         115         116         117         118         119         120
          121         122         123         124         125         126         127         128         129         130
          131         132         133         134         135         136         137         138         139         140
          141         142         143         144         145         146         147         148         149         150
          151         152         153         154
 ........................................................................................................................
   1    4.711       4.680       4.649       4.619       4.588       4.558       4.527       4.496       4.466       4.435    
        4.404       4.373       4.343       4.312       4.281       4.250       4.219       4.188       4.157       4.127    
        4.096       4.066       4.035       4.004       3.974       3.943       3.912       3.882       3.852       3.822    
        3.792       3.762       3.732       3.702       3.673       3.643       3.613       3.585       3.557       3.528    
        3.500       3.472       3.444       3.416       3.388       3.359       3.334       3.309       3.284       3.258    
        3.233       3.208       3.183       3.158       3.132       3.111       3.090       3.069       3.048       3.027    
        3.007       2.986       2.965       2.944       2.928       2.913       2.897       2.882       2.866       2.850    
        2.835       2.819       2.804       2.794       2.785       2.775       2.765       2.756       2.746       2.736    
        2.727       2.717       2.713       2.709       2.704       2.700       2.696       2.692       2.688       2.683    
        2.679       2.679       2.679       2.679       2.679       2.679       2.679       2.680       2.680       2.680    
        2.683       2.686       2.689       2.692       2.694       2.697       2.700       2.703       2.706       2.711    
        2.716       2.720       2.725       2.730       2.734       2.739       2.744       2.748       2.754       2.759    
        2.765       2.770       2.776       2.781       2.787       2.792       2.798       2.803       2.809       2.815    
        2.820       2.826       2.832       2.837       2.843       2.849       2.854       2.860       2.865       2.871    
        2.876       2.882       2.887       2.893       2.898       2.903       2.908       2.913       2.919       2.924    
        2.929       2.934       2.939       2.944    
   2    4.701       4.670       4.639       4.609       4.578       4.547       4.516       4.485       4.454       4.423    
        4.392       4.361       4.330       4.299       4.268       4.237       4.205       4.174       4.143       4.112    
        4.081       4.050       4.019       3.988       3.957       3.926       3.895       3.865       3.834       3.804    
        3.773       3.743       3.713       3.683       3.653       3.623       3.593       3.564       3.535       3.506    
        3.477       3.449       3.420       3.392       3.364       3.336       3.310       3.283       3.258       3.232    
        3.206       3.181       3.155       3.130       3.106       3.083       3.061       3.040       3.018       2.997    
        2.976       2.955       2.935       2.915       2.898       2.881       2.865       2.849       2.834       2.818    
        2.803       2.789       2.775       2.763       2.753       2.743       2.733       2.723       2.714       2.705    
        2.697       2.689       2.683       2.678       2.674       2.670       2.666       2.662       2.659       2.655    
        2.653       2.652       2.652       2.652       2.652       2.653       2.653       2.654       2.655       2.656    
        2.659       2.662       2.665       2.668       2.672       2.675       2.679       2.682       2.686       2.691    
        2.696       2.701       2.706       2.711       2.716       2.721       2.726       2.731       2.737       2.743    
        2.748       2.754       2.760       2.766       2.772       2.777       2.783       2.789       2.795       2.801    
        2.807       2.813       2.819       2.825       2.831       2.837       2.842       2.848       2.854       2.860    
        2.865       2.871       2.877       2.882       2.888       2.893       2.899       2.904       2.909       2.915    
        2.920       2.925       2.931       2.936    
   3    4.692       4.660       4.629       4.598       4.567       4.536       4.505       4.474       4.443       4.411    
        4.380       4.349       4.317       4.286       4.254       4.223       4.192       4.160       4.129       4.097    
        4.066       4.035       4.003       3.972       3.941       3.910       3.878       3.847       3.816       3.785    
        3.755       3.724       3.693       3.663       3.632       3.602       3.572       3.542       3.513       3.484    
        3.455       3.426       3.397       3.368       3.340       3.312       3.285       3.258       3.231       3.205    
        3.179       3.153       3.128       3.103       3.078       3.055       3.032       3.010       2.988       2.966    
        2.945       2.925       2.904       2.885       2.867       2.850       2.833       2.817       2.801       2.786    
        2.771       2.757       2.744       2.732       2.721       2.710       2.700       2.691       2.682       2.673    
        2.666       2.658       2.653       2.648       2.643       2.639       2.636       2.632       2.629       2.627    
        2.625       2.624       2.624       2.624       2.625       2.626       2.627       2.628       2.630       2.632    
        2.635       2.638       2.641       2.645       2.649       2.653       2.657       2.661       2.666       2.670    
        2.675       2.681       2.686       2.692       2.697       2.703       2.708       2.714       2.720       2.726    
        2.732       2.738       2.744       2.750       2.756       2.763       2.769       2.775       2.781       2.787    
        2.794       2.800       2.806       2.812       2.818       2.825       2.831       2.837       2.843       2.849    
        2.855       2.861       2.866       2.872       2.878       2.884       2.889       2.895       2.900       2.906    
        2.911       2.917       2.922       2.928    
   4    4.682       4.651       4.619       4.588       4.557       4.525       4.494       4.462       4.431       4.399    
        4.368       4.336       4.305       4.273       4.241       4.210       4.178       4.146       4.114       4.083    
        4.051       4.019       3.988       3.956       3.924       3.893       3.861       3.830       3.798       3.767    
        3.736       3.705       3.674       3.643       3.612       3.582       3.551       3.521       3.491       3.461    
        3.432       3.402       3.373       3.344       3.315       3.287       3.259       3.232       3.205       3.178    
        3.151       3.125       3.100       3.074       3.050       3.026       3.003       2.980       2.957       2.936    
        2.914       2.893       2.873       2.854       2.835       2.817       2.800       2.784       2.768       2.753    
        2.738       2.724       2.711       2.699       2.688       2.677       2.667       2.658       2.649       2.641    
        2.634       2.627       2.621       2.616       2.612       2.608       2.605       2.602       2.600       2.598    
        2.597       2.596       2.596       2.597       2.597       2.599       2.600       2.602       2.604       2.607    
        2.610       2.614       2.617       2.621       2.626       2.630       2.635       2.639       2.644       2.650    
        2.655       2.661       2.667       2.672       2.678       2.684       2.690       2.696       2.703       2.709    
        2.715       2.722       2.728       2.735       2.741       2.748       2.754       2.761       2.767       2.774    
        2.780       2.787       2.793       2.800       2.806       2.813       2.819       2.825       2.831       2.838    
        2.844       2.850       2.856       2.862       2.868       2.874       2.880       2.886       2.891       2.897    
        2.903       2.908       2.914       2.920    
   5    4.672       4.641       4.609       4.578       4.546       4.514       4.483       4.451       4.419       4.388    
        4.356       4.324       4.292       4.260       4.228       4.196       4.164       4.132       4.100       4.068    
        4.036       4.004       3.972       3.940       3.908       3.876       3.844       3.812       3.781       3.749    
        3.717       3.686       3.654       3.623       3.592       3.561       3.530       3.499       3.469       3.439    
        3.408       3.379       3.349       3.320       3.290       3.262       3.233       3.205       3.178       3.151    
        3.124       3.097       3.071       3.046       3.021       2.996       2.972       2.949       2.926       2.904    
        2.882       2.861       2.841       2.821       2.803       2.785       2.767       2.751       2.735       2.719    
        2.705       2.691       2.678       2.666       2.654       2.644       2.634       2.625       2.616       2.608    
        2.601       2.595       2.589       2.584       2.580       2.577       2.574       2.571       2.569       2.568    
        2.567       2.567       2.567       2.568       2.570       2.571       2.573       2.576       2.579       2.582    
        2.585       2.589       2.593       2.598       2.602       2.607       2.612       2.618       2.623       2.629    
        2.635       2.641       2.647       2.653       2.659       2.666       2.672       2.679       2.685       2.692    
        2.699       2.706       2.712       2.719       2.726       2.733       2.740       2.747       2.753       2.760    
        2.767       2.774       2.781       2.787       2.794       2.801       2.807       2.814       2.820       2.827    
        2.833       2.839       2.846       2.852       2.858       2.864       2.870       2.876       2.882       2.888    
        2.894       2.900       2.906       2.911    
   6    4.663       4.631       4.599       4.567       4.536       4.504       4.472       4.440       4.408       4.376    
        4.344       4.312       4.279       4.247       4.215       4.183       4.150       4.118       4.086       4.053    
        4.021       3.989       3.956       3.924       3.891       3.859       3.827       3.795       3.763       3.730    
        3.698       3.666       3.635       3.603       3.571       3.540       3.508       3.477       3.446       3.416    
        3.385       3.355       3.325       3.295       3.265       3.236       3.207       3.179       3.151       3.123    
        3.096       3.069       3.042       3.016       2.991       2.966       2.942       2.918       2.895       2.872    
        2.850       2.829       2.808       2.788       2.769       2.751       2.733       2.717       2.700       2.685    
        2.670       2.657       2.644       2.631       2.620       2.610       2.600       2.591       2.582       2.575    
        2.568       2.562       2.557       2.552       2.548       2.545       2.542       2.540       2.539       2.538    
        2.537       2.538       2.538       2.540       2.541       2.544       2.546       2.549       2.552       2.556    
        2.560       2.564       2.569       2.574       2.579       2.584       2.590       2.596       2.602       2.608    
        2.614       2.621       2.627       2.634       2.640       2.647       2.654       2.661       2.668       2.675    
        2.682       2.689       2.697       2.704       2.711       2.718       2.725       2.732       2.740       2.747    
        2.754       2.761       2.768       2.775       2.782       2.789       2.796       2.802       2.809       2.816    
        2.822       2.829       2.836       2.842       2.848       2.855       2.861       2.867       2.873       2.879    
        2.885       2.891       2.897       2.903    
   7    4.653       4.621       4.589       4.557       4.525       4.493       4.461       4.429       4.396       4.364    
        4.332       4.299       4.267       4.234       4.202       4.169       4.137       4.104       4.071       4.039    
        4.006       3.973       3.940       3.908       3.875       3.842       3.810       3.777       3.744       3.712    
        3.679       3.647       3.615       3.583       3.551       3.519       3.487       3.455       3.424       3.393    
        3.362       3.331       3.300       3.270       3.240       3.210       3.181       3.152       3.123       3.095    
        3.067       3.040       3.013       2.986       2.960       2.935       2.910       2.886       2.863       2.840    
        2.817       2.796       2.775       2.755       2.735       2.717       2.699       2.682       2.666       2.650    
        2.635       2.622       2.609       2.596       2.585       2.575       2.565       2.556       2.548       2.540    
        2.534       2.528       2.523       2.519       2.515       2.512       2.510       2.508       2.507       2.507    
        2.507       2.508       2.509       2.511       2.513       2.516       2.519       2.522       2.526       2.530    
        2.534       2.539       2.544       2.550       2.555       2.561       2.567       2.574       2.580       2.587    
        2.593       2.600       2.607       2.614       2.621       2.629       2.636       2.643       2.651       2.658    
        2.666       2.673       2.681       2.688       2.696       2.703       2.711       2.718       2.726       2.733    
        2.741       2.748       2.755       2.762       2.770       2.777       2.784       2.791       2.798       2.805    
        2.812       2.819       2.825       2.832       2.839       2.845       2.852       2.858       2.864       2.871    
        2.877       2.883       2.889       2.895    
   8    4.643       4.611       4.579       4.547       4.515       4.482       4.450       4.418       4.385       4.352    
        4.320       4.287       4.254       4.222       4.189       4.156       4.123       4.090       4.057       4.024    
        3.991       3.958       3.925       3.892       3.858       3.825       3.792       3.759       3.726       3.693    
        3.660       3.628       3.595       3.562       3.530       3.497       3.465       3.433       3.401       3.369    
        3.338       3.306       3.275       3.245       3.214       3.184       3.154       3.124       3.095       3.066    
        3.038       3.010       2.983       2.956       2.929       2.904       2.878       2.854       2.830       2.807    
        2.784       2.762       2.741       2.720       2.701       2.682       2.664       2.646       2.630       2.614    
        2.600       2.586       2.573       2.561       2.549       2.539       2.529       2.521       2.513       2.505    
        2.499       2.494       2.489       2.485       2.482       2.479       2.477       2.476       2.475       2.475    
        2.476       2.477       2.479       2.481       2.484       2.487       2.491       2.495       2.499       2.504    
        2.509       2.514       2.520       2.526       2.532       2.538       2.545       2.551       2.558       2.565    
        2.572       2.580       2.587       2.595       2.602       2.610       2.618       2.626       2.633       2.641    
        2.649       2.657       2.665       2.673       2.681       2.688       2.696       2.704       2.712       2.720    
        2.727       2.735       2.743       2.750       2.758       2.765       2.772       2.780       2.787       2.794    
        2.801       2.808       2.815       2.822       2.829       2.836       2.842       2.849       2.856       2.862    
        2.868       2.875       2.881       2.887    
   9    4.634       4.602       4.569       4.537       4.504       4.472       4.439       4.406       4.374       4.341    
        4.308       4.275       4.242       4.209       4.176       4.142       4.109       4.076       4.043       4.009    
        3.976       3.942       3.909       3.875       3.842       3.808       3.775       3.742       3.708       3.675    
        3.641       3.608       3.575       3.542       3.509       3.476       3.443       3.411       3.378       3.346    
        3.314       3.282       3.250       3.219       3.188       3.157       3.127       3.097       3.067       3.038    
        3.009       2.980       2.952       2.925       2.898       2.872       2.846       2.821       2.797       2.773    
        2.750       2.727       2.706       2.685       2.665       2.646       2.628       2.610       2.594       2.578    
        2.563       2.549       2.536       2.524       2.513       2.502       2.493       2.484       2.477       2.470    
        2.464       2.458       2.454       2.450       2.447       2.445       2.444       2.443       2.443       2.444    
        2.445       2.446       2.449       2.451       2.454       2.458       2.462       2.467       2.472       2.477    
        2.482       2.488       2.495       2.501       2.508       2.514       2.522       2.529       2.536       2.544    
        2.551       2.559       2.567       2.575       2.583       2.591       2.600       2.608       2.616       2.624    
        2.632       2.641       2.649       2.657       2.665       2.674       2.682       2.690       2.698       2.706    
        2.714       2.722       2.730       2.738       2.746       2.753       2.761       2.769       2.776       2.783    
        2.791       2.798       2.805       2.812       2.819       2.826       2.833       2.840       2.847       2.853    
        2.860       2.866       2.873       2.879    
  10    4.624       4.592       4.560       4.527       4.494       4.461       4.428       4.395       4.362       4.329    
        4.296       4.263       4.230       4.196       4.163       4.129       4.096       4.062       4.028       3.994    
        3.961       3.927       3.893       3.859       3.825       3.791       3.758       3.724       3.690       3.656    
        3.622       3.589       3.555       3.521       3.488       3.454       3.421       3.388       3.355       3.322    
        3.290       3.257       3.225       3.193       3.161       3.130       3.099       3.068       3.038       3.008    
        2.979       2.950       2.921       2.893       2.866       2.839       2.813       2.787       2.763       2.738    
        2.715       2.692       2.670       2.649       2.629       2.609       2.591       2.573       2.556       2.541    
        2.526       2.512       2.499       2.486       2.475       2.465       2.456       2.447       2.440       2.433    
        2.427       2.422       2.418       2.415       2.413       2.411       2.410       2.410       2.410       2.411    
        2.413       2.415       2.418       2.421       2.425       2.429       2.434       2.439       2.444       2.450    
        2.456       2.462       2.469       2.476       2.483       2.491       2.498       2.506       2.514       2.522    
        2.530       2.539       2.547       2.556       2.564       2.573       2.581       2.590       2.599       2.607    
        2.616       2.624       2.633       2.642       2.650       2.659       2.667       2.676       2.684       2.693    
        2.701       2.709       2.717       2.726       2.734       2.742       2.750       2.757       2.765       2.773    
        2.780       2.788       2.795       2.803       2.810       2.817       2.824       2.831       2.838       2.845    
        2.852       2.858       2.865       2.871    
  11    4.615       4.583       4.550       4.517       4.484       4.451       4.418       4.385       4.351       4.318    
        4.284       4.251       4.217       4.183       4.150       4.116       4.082       4.048       4.014       3.980    
        3.946       3.912       3.877       3.843       3.809       3.775       3.740       3.706       3.672       3.637    
        3.603       3.569       3.535       3.501       3.467       3.433       3.399       3.365       3.332       3.298    
        3.265       3.232       3.200       3.167       3.135       3.103       3.071       3.040       3.009       2.979    
        2.949       2.919       2.890       2.862       2.834       2.806       2.779       2.753       2.728       2.703    
        2.679       2.656       2.634       2.612       2.592       2.572       2.553       2.535       2.518       2.502    
        2.487       2.473       2.460       2.448       2.437       2.427       2.418       2.409       2.402       2.396    
        2.390       2.386       2.382       2.379       2.377       2.376       2.375       2.375       2.376       2.378    
        2.380       2.383       2.386       2.390       2.394       2.399       2.404       2.410       2.416       2.423    
        2.429       2.436       2.444       2.451       2.459       2.467       2.475       2.483       2.492       2.500    
        2.509       2.518       2.527       2.536       2.545       2.554       2.563       2.572       2.581       2.590    
        2.599       2.608       2.617       2.626       2.635       2.644       2.653       2.662       2.671       2.679    
        2.688       2.697       2.705       2.713       2.722       2.730       2.738       2.746       2.754       2.762    
        2.770       2.778       2.785       2.793       2.800       2.808       2.815       2.822       2.829       2.836    
        2.843       2.850       2.857       2.863    
  12    4.606       4.573       4.540       4.507       4.474       4.441       4.407       4.374       4.340       4.306    
        4.273       4.239       4.205       4.171       4.137       4.103       4.068       4.034       4.000       3.965    
        3.931       3.896       3.862       3.827       3.792       3.758       3.723       3.688       3.653       3.619    
        3.584       3.549       3.515       3.480       3.445       3.411       3.377       3.342       3.308       3.274    
        3.241       3.207       3.174       3.141       3.108       3.075       3.043       3.011       2.980       2.949    
        2.918       2.888       2.858       2.829       2.800       2.773       2.745       2.719       2.693       2.667    
        2.643       2.620       2.597       2.575       2.554       2.534       2.515       2.497       2.479       2.463    
        2.448       2.434       2.421       2.409       2.398       2.388       2.379       2.371       2.364       2.357    
        2.352       2.348       2.345       2.342       2.341       2.340       2.340       2.341       2.342       2.344    
        2.347       2.350       2.354       2.359       2.364       2.369       2.375       2.381       2.388       2.395    
        2.402       2.410       2.418       2.426       2.434       2.443       2.452       2.461       2.470       2.479    
        2.488       2.497       2.507       2.516       2.526       2.535       2.545       2.554       2.564       2.573    
        2.583       2.592       2.601       2.611       2.620       2.630       2.639       2.648       2.657       2.666    
        2.675       2.684       2.693       2.701       2.710       2.718       2.727       2.735       2.744       2.752    
        2.760       2.768       2.776       2.783       2.791       2.799       2.806       2.814       2.821       2.828    
        2.835       2.842       2.849       2.856    
  13    4.597       4.564       4.531       4.497       4.464       4.430       4.397       4.363       4.329       4.295    
        4.261       4.227       4.193       4.158       4.124       4.090       4.055       4.020       3.986       3.951    
        3.916       3.881       3.846       3.811       3.776       3.741       3.705       3.670       3.635       3.600    
        3.565       3.530       3.494       3.459       3.424       3.389       3.354       3.320       3.285       3.250    
        3.216       3.182       3.148       3.114       3.081       3.047       3.015       2.982       2.950       2.918    
        2.887       2.856       2.826       2.796       2.767       2.738       2.710       2.683       2.657       2.631    
        2.606       2.582       2.559       2.536       2.515       2.495       2.475       2.457       2.440       2.423    
        2.408       2.394       2.381       2.369       2.358       2.348       2.339       2.331       2.324       2.318    
        2.314       2.310       2.307       2.305       2.304       2.303       2.304       2.305       2.307       2.310    
        2.313       2.317       2.322       2.327       2.332       2.339       2.345       2.352       2.359       2.367    
        2.375       2.383       2.392       2.401       2.410       2.419       2.428       2.437       2.447       2.457    
        2.467       2.476       2.486       2.496       2.506       2.516       2.526       2.536       2.546       2.556    
        2.566       2.576       2.586       2.596       2.605       2.615       2.624       2.634       2.643       2.653    
        2.662       2.671       2.680       2.689       2.698       2.707       2.716       2.724       2.733       2.741    
        2.750       2.758       2.766       2.774       2.782       2.790       2.797       2.805       2.812       2.820    
        2.827       2.834       2.842       2.849    
  14    4.588       4.555       4.521       4.488       4.454       4.420       4.386       4.352       4.318       4.284    
        4.250       4.215       4.181       4.146       4.111       4.076       4.042       4.007       3.971       3.936    
        3.901       3.866       3.830       3.795       3.759       3.724       3.688       3.653       3.617       3.581    
        3.545       3.510       3.474       3.438       3.403       3.367       3.332       3.296       3.261       3.226    
        3.191       3.156       3.122       3.087       3.053       3.019       2.986       2.952       2.920       2.887    
        2.855       2.824       2.793       2.762       2.733       2.703       2.675       2.647       2.620       2.594    
        2.568       2.544       2.520       2.497       2.475       2.455       2.435       2.416       2.399       2.382    
        2.367       2.352       2.339       2.327       2.316       2.307       2.298       2.290       2.284       2.278    
        2.274       2.270       2.268       2.266       2.266       2.266       2.267       2.269       2.272       2.275    
        2.279       2.284       2.289       2.295       2.301       2.308       2.315       2.322       2.330       2.339    
        2.347       2.356       2.366       2.375       2.385       2.394       2.404       2.414       2.424       2.435    
        2.445       2.455       2.466       2.476       2.487       2.497       2.508       2.518       2.529       2.539    
        2.549       2.560       2.570       2.580       2.590       2.600       2.610       2.620       2.630       2.640    
        2.649       2.659       2.668       2.677       2.687       2.696       2.705       2.714       2.722       2.731    
        2.739       2.748       2.756       2.764       2.773       2.781       2.789       2.796       2.804       2.812    
        2.819       2.827       2.834       2.841    
  15    4.580       4.546       4.512       4.478       4.444       4.410       4.376       4.342       4.307       4.273    
        4.238       4.203       4.169       4.134       4.099       4.063       4.028       3.993       3.957       3.922    
        3.886       3.851       3.815       3.779       3.743       3.707       3.671       3.635       3.599       3.562    
        3.526       3.490       3.454       3.418       3.381       3.345       3.309       3.273       3.237       3.202    
        3.166       3.130       3.095       3.060       3.025       2.991       2.957       2.923       2.889       2.856    
        2.823       2.791       2.759       2.728       2.698       2.668       2.639       2.610       2.582       2.556    
        2.529       2.504       2.480       2.457       2.435       2.414       2.394       2.375       2.357       2.340    
        2.324       2.310       2.297       2.285       2.274       2.264       2.256       2.249       2.242       2.237    
        2.233       2.230       2.228       2.227       2.227       2.228       2.230       2.232       2.235       2.239    
        2.244       2.249       2.255       2.262       2.269       2.276       2.284       2.293       2.301       2.310    
        2.320       2.329       2.339       2.349       2.359       2.370       2.380       2.391       2.402       2.413    
        2.424       2.435       2.446       2.457       2.468       2.479       2.490       2.500       2.511       2.522    
        2.533       2.544       2.554       2.565       2.575       2.586       2.596       2.606       2.616       2.627    
        2.636       2.646       2.656       2.666       2.675       2.684       2.694       2.703       2.712       2.721    
        2.730       2.738       2.747       2.755       2.764       2.772       2.780       2.788       2.796       2.804    
        2.811       2.819       2.826       2.834    
  16    4.571       4.537       4.503       4.469       4.434       4.400       4.366       4.331       4.297       4.262    
        4.227       4.192       4.157       4.121       4.086       4.051       4.015       3.979       3.944       3.908    
[...]
        2.764       2.772       2.780       2.788    
  92    4.539       4.505       4.471       4.436       4.402       4.367       4.332       4.297       4.261       4.226    
        4.191       4.155       4.119       4.083       4.047       4.011       3.975       3.938       3.902       3.865    
        3.828       3.791       3.754       3.717       3.680       3.642       3.605       3.567       3.530       3.492    
        3.454       3.416       3.378       3.340       3.302       3.265       3.227       3.189       3.151       3.113    
        3.075       3.038       3.001       2.963       2.926       2.890       2.853       2.817       2.781       2.746    
        2.711       2.676       2.642       2.609       2.576       2.544       2.512       2.482       2.452       2.423    
        2.395       2.368       2.342       2.317       2.294       2.271       2.250       2.230       2.211       2.194    
        2.178       2.163       2.150       2.138       2.127       2.118       2.110       2.104       2.098       2.094    
        2.092       2.090       2.090       2.090       2.092       2.095       2.098       2.103       2.108       2.114    
        2.121       2.129       2.137       2.146       2.155       2.165       2.175       2.186       2.196       2.208    
        2.219       2.231       2.243       2.255       2.267       2.280       2.292       2.305       2.317       2.330    
        2.343       2.355       2.368       2.381       2.393       2.406       2.418       2.431       2.443       2.455    
        2.467       2.479       2.491       2.503       2.515       2.526       2.538       2.549       2.560       2.571    
        2.582       2.593       2.604       2.614       2.624       2.635       2.645       2.655       2.664       2.674    
        2.684       2.693       2.702       2.711       2.720       2.729       2.738       2.746       2.755       2.763    
        2.771       2.779       2.787       2.795    
  93    4.548       4.514       4.479       4.445       4.411       4.376       4.341       4.307       4.272       4.236    
        4.201       4.166       4.130       4.095       4.059       4.023       3.987       3.951       3.915       3.879    
        3.842       3.806       3.769       3.732       3.696       3.659       3.622       3.584       3.547       3.510    
        3.473       3.436       3.398       3.361       3.324       3.286       3.249       3.212       3.175       3.138    
        3.101       3.064       3.027       2.991       2.954       2.918       2.883       2.847       2.812       2.778    
        2.744       2.710       2.677       2.644       2.612       2.581       2.550       2.520       2.491       2.463    
        2.436       2.410       2.384       2.360       2.337       2.315       2.294       2.275       2.256       2.239    
        2.223       2.209       2.195       2.183       2.173       2.163       2.155       2.148       2.143       2.138    
        2.135       2.133       2.132       2.132       2.133       2.135       2.138       2.142       2.146       2.152    
        2.158       2.164       2.172       2.180       2.188       2.197       2.206       2.216       2.226       2.237    
        2.247       2.258       2.270       2.281       2.292       2.304       2.316       2.328       2.340       2.352    
        2.364       2.376       2.388       2.400       2.412       2.424       2.436       2.448       2.460       2.472    
        2.483       2.495       2.506       2.518       2.529       2.540       2.551       2.562       2.573       2.584    
        2.594       2.605       2.615       2.625       2.635       2.645       2.655       2.664       2.674       2.683    
        2.693       2.702       2.711       2.720       2.728       2.737       2.746       2.754       2.762       2.770    
        2.778       2.786       2.794       2.802    
  94    4.556       4.522       4.488       4.454       4.420       4.385       4.351       4.316       4.282       4.247    
        4.212       4.177       4.142       4.107       4.071       4.036       4.000       3.964       3.928       3.893    
        3.856       3.820       3.784       3.748       3.711       3.675       3.638       3.602       3.565       3.528    
        3.492       3.455       3.418       3.381       3.345       3.308       3.271       3.235       3.198       3.162    
        3.126       3.089       3.053       3.018       2.982       2.947       2.912       2.878       2.843       2.810    
        2.776       2.743       2.711       2.679       2.648       2.617       2.587       2.558       2.530       2.503    
        2.476       2.450       2.426       2.402       2.379       2.358       2.338       2.318       2.300       2.283    
        2.267       2.253       2.240       2.228       2.217       2.207       2.199       2.192       2.186       2.181    
        2.177       2.175       2.173       2.173       2.173       2.174       2.177       2.180       2.183       2.188    
        2.193       2.199       2.206       2.213       2.221       2.229       2.237       2.246       2.256       2.265    
        2.275       2.285       2.296       2.307       2.317       2.328       2.340       2.351       2.362       2.374    
        2.385       2.396       2.408       2.419       2.431       2.442       2.454       2.465       2.477       2.488    
        2.499       2.510       2.521       2.532       2.543       2.554       2.565       2.575       2.586       2.596    
        2.606       2.616       2.626       2.636       2.646       2.656       2.665       2.675       2.684       2.693    
        2.702       2.711       2.720       2.728       2.737       2.745       2.754       2.762       2.770       2.778    
        2.786       2.793       2.801       2.809    
  95    4.565       4.531       4.497       4.463       4.429       4.395       4.361       4.327       4.292       4.258    
        4.223       4.188       4.153       4.118       4.083       4.048       4.013       3.977       3.942       3.906    
        3.871       3.835       3.799       3.763       3.727       3.691       3.655       3.619       3.583       3.547    
        3.510       3.474       3.438       3.402       3.366       3.330       3.293       3.258       3.222       3.186    
        3.150       3.115       3.080       3.045       3.010       2.975       2.941       2.907       2.874       2.841    
        2.808       2.776       2.744       2.713       2.683       2.653       2.624       2.596       2.568       2.541    
        2.515       2.490       2.466       2.443       2.421       2.400       2.380       2.361       2.343       2.326    
        2.311       2.296       2.283       2.271       2.260       2.250       2.242       2.235       2.228       2.223    
        2.219       2.216       2.213       2.212       2.212       2.213       2.215       2.217       2.220       2.224    
        2.228       2.234       2.239       2.246       2.253       2.260       2.268       2.276       2.285       2.294    
        2.303       2.312       2.322       2.332       2.342       2.353       2.363       2.374       2.384       2.395    
        2.406       2.417       2.428       2.439       2.450       2.461       2.472       2.483       2.493       2.504    
        2.515       2.526       2.536       2.547       2.557       2.568       2.578       2.588       2.598       2.608    
        2.618       2.628       2.638       2.647       2.657       2.666       2.676       2.685       2.694       2.703    
        2.711       2.720       2.729       2.737       2.745       2.754       2.762       2.770       2.778       2.785    
        2.793       2.801       2.808       2.816    
  96    4.573       4.540       4.506       4.472       4.439       4.405       4.371       4.337       4.303       4.268    
        4.234       4.200       4.165       4.130       4.096       4.061       4.026       3.991       3.956       3.920    
        3.885       3.850       3.814       3.779       3.743       3.708       3.672       3.636       3.601       3.565    
        3.529       3.494       3.458       3.422       3.387       3.351       3.316       3.280       3.245       3.210    
        3.175       3.140       3.106       3.071       3.037       3.003       2.970       2.937       2.904       2.872    
        2.840       2.808       2.777       2.747       2.717       2.688       2.660       2.632       2.605       2.579    
        2.554       2.529       2.505       2.483       2.461       2.440       2.421       2.402       2.385       2.368    
        2.353       2.338       2.325       2.313       2.302       2.292       2.284       2.276       2.269       2.264    
        2.259       2.255       2.253       2.251       2.251       2.251       2.252       2.254       2.256       2.259    
        2.263       2.267       2.272       2.278       2.284       2.291       2.298       2.306       2.313       2.322    
        2.330       2.339       2.348       2.357       2.367       2.377       2.387       2.396       2.407       2.417    
        2.427       2.437       2.448       2.458       2.469       2.479       2.490       2.500       2.510       2.521    
        2.531       2.541       2.552       2.562       2.572       2.582       2.592       2.602       2.611       2.621    
        2.631       2.640       2.650       2.659       2.668       2.677       2.686       2.695       2.704       2.712    
        2.721       2.729       2.738       2.746       2.754       2.762       2.770       2.778       2.785       2.793    
        2.800       2.808       2.815       2.823    
  97    4.582       4.549       4.515       4.482       4.448       4.414       4.381       4.347       4.313       4.279    
        4.245       4.211       4.177       4.142       4.108       4.073       4.039       4.004       3.969       3.934    
        3.900       3.865       3.830       3.794       3.759       3.724       3.689       3.654       3.619       3.583    
        3.548       3.513       3.478       3.443       3.408       3.373       3.338       3.303       3.268       3.234    
        3.200       3.165       3.131       3.098       3.064       3.031       2.998       2.966       2.934       2.903    
        2.871       2.840       2.810       2.780       2.751       2.723       2.695       2.668       2.642       2.616    
        2.591       2.567       2.544       2.521       2.500       2.480       2.461       2.443       2.426       2.409    
        2.393       2.379       2.366       2.354       2.343       2.333       2.325       2.317       2.310       2.303    
        2.298       2.294       2.291       2.289       2.288       2.288       2.289       2.290       2.291       2.293    
        2.296       2.300       2.305       2.310       2.316       2.322       2.328       2.335       2.342       2.349    
        2.357       2.365       2.374       2.383       2.392       2.401       2.410       2.419       2.429       2.438    
        2.448       2.458       2.468       2.478       2.488       2.497       2.507       2.517       2.527       2.537    
        2.547       2.557       2.567       2.577       2.586       2.596       2.606       2.615       2.624       2.634    
        2.643       2.652       2.661       2.670       2.679       2.688       2.697       2.705       2.714       2.722    
        2.730       2.739       2.747       2.755       2.763       2.770       2.778       2.786       2.793       2.801    
        2.808       2.815       2.822       2.830    
  98    4.591       4.557       4.524       4.491       4.457       4.424       4.391       4.357       4.324       4.290    
        4.256       4.222       4.188       4.154       4.120       4.086       4.052       4.018       3.983       3.949    
        3.914       3.879       3.845       3.810       3.775       3.741       3.706       3.671       3.636       3.602    
        3.567       3.532       3.498       3.463       3.428       3.394       3.360       3.325       3.292       3.258    
        3.224       3.190       3.157       3.124       3.091       3.058       3.026       2.995       2.964       2.933    
        2.902       2.872       2.842       2.813       2.784       2.756       2.730       2.704       2.678       2.653    
        2.628       2.604       2.581       2.559       2.538       2.519       2.501       2.483       2.466       2.449    
        2.433       2.419       2.405       2.393       2.383       2.373       2.365       2.357       2.349       2.342    
        2.336       2.332       2.328       2.326       2.325       2.325       2.325       2.325       2.326       2.327    
        2.329       2.333       2.337       2.342       2.347       2.352       2.358       2.364       2.370       2.377    
        2.384       2.392       2.400       2.408       2.416       2.424       2.433       2.442       2.450       2.460    
        2.469       2.478       2.488       2.497       2.506       2.516       2.525       2.535       2.544       2.554    
        2.563       2.573       2.582       2.591       2.601       2.610       2.619       2.628       2.638       2.646    
        2.655       2.664       2.673       2.682       2.691       2.699       2.707       2.716       2.724       2.732    
        2.740       2.748       2.756       2.764       2.772       2.779       2.786       2.794       2.801       2.808    
        2.815       2.822       2.830       2.837    
  99    4.599       4.566       4.533       4.500       4.467       4.434       4.401       4.368       4.335       4.301    
        4.268       4.234       4.200       4.167       4.133       4.099       4.065       4.031       3.997       3.963    
        3.929       3.894       3.860       3.826       3.791       3.757       3.723       3.688       3.654       3.620    
        3.586       3.552       3.517       3.483       3.449       3.415       3.381       3.348       3.315       3.281    
        3.248       3.215       3.182       3.150       3.117       3.085       3.054       3.023       2.993       2.963    
        2.933       2.903       2.873       2.844       2.816       2.789       2.764       2.739       2.714       2.689    
        2.665       2.641       2.617       2.595       2.575       2.557       2.539       2.522       2.505       2.489    
        2.472       2.457       2.443       2.432       2.422       2.413       2.404       2.396       2.388       2.380    
        2.373       2.368       2.365       2.363       2.362       2.361       2.360       2.360       2.360       2.360    
        2.361       2.364       2.368       2.373       2.377       2.382       2.387       2.392       2.397       2.403    
        2.410       2.417       2.425       2.433       2.440       2.448       2.456       2.464       2.472       2.481    
        2.490       2.498       2.507       2.516       2.525       2.534       2.543       2.552       2.561       2.570    
        2.579       2.588       2.597       2.606       2.615       2.624       2.633       2.642       2.651       2.659    
        2.668       2.676       2.685       2.693       2.702       2.710       2.718       2.726       2.734       2.742    
        2.750       2.758       2.765       2.773       2.781       2.788       2.795       2.802       2.809       2.816    
        2.823       2.830       2.837       2.844    
 100    4.608       4.575       4.542       4.509       4.477       4.444       4.411       4.378       4.346       4.313    
        4.279       4.246       4.212       4.179       4.145       4.112       4.078       4.045       4.011       3.977    
        3.943       3.909       3.875       3.841       3.808       3.774       3.740       3.706       3.672       3.638    
        3.605       3.571       3.537       3.503       3.470       3.436       3.402       3.370       3.337       3.305    
        3.273       3.240       3.208       3.175       3.143       3.110       3.081       3.052       3.022       2.993    
        2.963       2.934       2.905       2.875       2.846       2.822       2.797       2.773       2.749       2.725    
        2.701       2.677       2.652       2.628       2.611       2.595       2.578       2.561       2.544       2.528    
        2.511       2.494       2.477       2.469       2.460       2.452       2.443       2.435       2.426       2.418    
        2.409       2.401       2.400       2.399       2.398       2.397       2.396       2.394       2.393       2.392    
        2.391       2.395       2.400       2.404       2.408       2.412       2.416       2.420       2.425       2.429    
        2.436       2.443       2.450       2.457       2.465       2.472       2.479       2.486       2.493       2.502    
        2.510       2.519       2.527       2.536       2.544       2.553       2.561       2.569       2.578       2.587    
        2.595       2.604       2.613       2.621       2.630       2.639       2.647       2.656       2.664       2.672    
        2.680       2.689       2.697       2.705       2.713       2.722       2.729       2.737       2.744       2.752    
        2.760       2.767       2.775       2.782       2.790       2.797       2.803       2.810       2.817       2.824    
        2.830       2.837       2.844       2.851    

 HEAD WILL BE SAVED ON UNIT   86 AT END OF TIME STEP   1, STRESS PERIOD    1
1
  VOLUMETRIC BUDGET FOR ENTIRE MODEL AT END OF TIME STEP  1 IN STRESS PERIOD   1
  ------------------------------------------------------------------------------

     CUMULATIVE VOLUMES      L**3       RATES FOR THIS TIME STEP      L**3/T
     ------------------                 ------------------------

           IN:                                      IN:
           ---                                      ---
             STORAGE =           0.0000               STORAGE =           0.0000
       CONSTANT HEAD =       5.5000E-03         CONSTANT HEAD =       5.5000E-03
               WELLS =           0.0000                 WELLS =           0.0000

            TOTAL IN =       5.5000E-03              TOTAL IN =       5.5000E-03

          OUT:                                     OUT:
          ----                                     ----
             STORAGE =           0.0000               STORAGE =           0.0000
       CONSTANT HEAD =           0.0000         CONSTANT HEAD =           0.0000
               WELLS =       5.5000E-03                 WELLS =       5.5000E-03

           TOTAL OUT =       5.5000E-03             TOTAL OUT =       5.5000E-03

            IN - OUT =           0.0000              IN - OUT =           0.0000

 PERCENT DISCREPANCY =           0.00     PERCENT DISCREPANCY =           0.00






          TIME SUMMARY AT END OF TIME STEP   1 IN STRESS PERIOD    1
                          TIME STEP LENGTH =    1.00000    
                        STRESS PERIOD TIME =    1.00000    
                     TOTAL SIMULATION TIME =    1.00000    
1
1
  FLUX ACROSS PARENT-CHILD INTERFACE AT TIME STEP  1 IN STRESS PERIOD    1
  ------------------------------------------------------------------------

     CUMULATIVE VOLUMES      L**3       RATES FOR THIS TIME STEP      L**3/T
     ------------------                 ------------------------

   TOTAL IN TO CHILD =       5.5000E-03     TOTAL IN TO CHILD =       5.5000E-03

 TOTAL OUT TO PARENT =           0.0000   TOTAL OUT TO PARENT =           0.0000

